@<TRIPOS>MOLECULE
2esj.pdb
112 116 1 0 0
SMALL
AMBER ff14SB


@<TRIPOS>ATOM
      1 C11        17.1930   -6.5840   18.7250 C.3       1 LIV    0.2006
      2 O11        17.7050   -7.8930   19.0400 O.3       1 LIV   -0.3355
      3 C21        17.8890   -5.5670   19.6770 C.3       1 LIV    0.0280
      4 N21        19.3470   -5.6220   19.5750 N.4       1 LIV    0.2376
      5 C31        17.4520   -5.8010   21.1580 C.3       1 LIV    0.0228
      6 C41        15.8970   -5.7610   21.2360 C.3       1 LIV    0.0880
      7 O41        15.4330   -5.8900   22.5680 O.3       1 LIV   -0.3901
      8 C51        15.3340   -6.8800   20.3250 C.3       1 LIV    0.1100
      9 O51        15.7660   -6.5890   18.9650 O.3       1 LIV   -0.3391
     10 C61        13.8440   -6.9060   20.2840 C.3       1 LIV    0.0720
     11 O61        13.4640   -7.9430   19.4120 O.3       1 LIV   -0.3936
     12 C12        19.4380  -11.1550   16.8850 C.3       1 LIV    0.0077
     13 N12        19.6790  -12.3050   15.9980 N.4       1 LIV    0.2359
     14 C62        19.0940   -9.8750   16.0420 C.3       1 LIV    0.1244
     15 O62        20.2400   -9.5800   15.2000 O.3       1 LIV   -0.3845
     16 C52        18.8710   -8.6350   16.9720 C.3       1 LIV    0.1237
     17 O52        18.4970   -7.4390   16.2330 O.3       1 LIV   -0.3407
     18 C42        17.7870   -8.9400   18.0550 C.3       1 LIV    0.1313
     19 C32        18.0400  -10.2430   18.8570 C.3       1 LIV    0.0081
     20 N32        16.9280  -10.5000   19.7780 N.4       1 LIV    0.2359
     21 C22        18.2450  -11.4650   17.8740 C.3       1 LIV    0.0362
     22 C13        19.5130   -6.6240   15.6920 C.3       1 LIV    0.1867
     23 C23        19.0030   -5.9040   14.4430 C.3       1 LIV    0.1337
     24 O23        19.1870   -6.6860   13.2430 O.3       1 LIV   -0.3850
     25 C33        19.8270   -4.6500   14.4940 C.3       1 LIV    0.1202
     26 C43        19.9840   -4.3080   15.9900 C.3       1 LIV    0.1128
     27 O43        19.9400   -5.5920   16.5920 O.3       1 LIV   -0.3414
     28 C53        18.8990   -3.4240   16.6040 C.3       1 LIV    0.0721
     29 O53        19.4650   -2.7820   17.7560 O.3       1 LIV   -0.3936
     30 C44        24.7630   -2.7350   13.0670 C.3       1 LIV    0.1236
     31 O44        25.5740   -3.7590   13.6450 O.3       1 LIV   -0.3407
     32 C34        23.9260   -3.4840   11.9500 C.3       1 LIV    0.1292
     33 O34        23.1230   -2.4780   11.3240 O.3       1 LIV   -0.3843
     34 C24        22.9680   -4.5870   12.5830 C.3       1 LIV    0.0546
     35 N24        23.6630   -5.6700   13.3280 N.4       1 LIV    0.2396
     36 C14        21.8830   -3.8650   13.5010 C.3       1 LIV    0.2031
     37 O33        21.1400   -4.9060   14.0640 O.3       1 LIV   -0.3384
     38 C54        23.7630   -2.3520   14.1410 C.3       1 LIV    0.1283
     39 O54        22.5580   -3.0230   14.5680 O.3       1 LIV   -0.3358
     40 C64        24.3110   -1.5000   15.3270 C.3       1 LIV   -0.0082
     41 N64        23.7780   -1.9140   16.6420 N.4       1 LIV    0.2336
     42 C15        27.2260   -3.6090   13.7990 C.3       1 LIV    0.1867
     43 C25        27.3290   -4.5560   14.9890 C.3       1 LIV    0.1333
     44 C35        27.1810   -3.9010   16.3570 C.3       1 LIV    0.1133
     45 C45        28.0530   -2.6580   16.5430 C.3       1 LIV    0.1111
     46 C55        28.0610   -1.7880   15.2910 C.3       1 LIV    0.1123
     47 C65        28.8550   -0.4880   15.1850 C.3       1 LIV    0.0721
     48 O25        28.6050   -5.2260   14.9520 O.3       1 LIV   -0.3850
     49 O35        27.5380   -4.8820   17.3370 O.3       1 LIV   -0.3874
     50 O45        27.5800   -1.9900   17.7240 O.3       1 LIV   -0.3875
     51 O55        27.9430   -2.3640   13.9810 O.3       1 LIV   -0.3414
     52 O65        30.2650   -0.7820   15.0000 O.3       1 LIV   -0.3936
     53 H11        17.4022   -6.3347   17.6847 H         1 LIV    0.0986
     54 H21        17.5705   -4.5655   19.3880 H         1 LIV    0.0905
     55 HN21       19.6238   -5.4701   18.6156 H         1 LIV    0.1965
     56 HN22       19.7524   -4.9051   20.1597 H         1 LIV    0.1965
     57 HN23       19.6718   -6.5285   19.8796 H         1 LIV    0.1965
     58 H312       17.8705   -5.0186   21.7911 H         1 LIV    0.0354
     59 H313       17.8097   -6.7739   21.4950 H         1 LIV    0.0354
     60 H41        15.5592   -4.8004   20.8472 H         1 LIV    0.0632
     61 HO41       15.7107   -6.7378   22.9227 H         1 LIV    0.2106
     62 H51        15.7177   -7.8500   20.6412 H         1 LIV    0.0657
     63 H612       13.4474   -7.0945   21.2816 H         1 LIV    0.0592
     64 H613       13.4681   -5.9533   19.9110 H         1 LIV    0.0592
     65 HO61       12.5062   -7.9861   19.3636 H         1 LIV    0.2102
     66 H12        20.3391  -10.9630   17.4674 H         1 LIV    0.0881
     67 HN11       19.8986  -13.1192   16.5538 H         1 LIV    0.1964
     68 HN12       20.4530  -12.0989   15.3827 H         1 LIV    0.1964
     69 HN13       18.8510  -12.4857   15.4486 H         1 LIV    0.1964
     70 H62        18.2101  -10.0520   15.4293 H         1 LIV    0.0689
     71 HO62       19.9528   -9.0802   14.4323 H         1 LIV    0.2109
     72 H52        19.8096   -8.4301   17.4868 H         1 LIV    0.0665
     73 H42        16.8196   -9.0231   17.5597 H         1 LIV    0.0694
     74 H32        18.9503  -10.1157   19.4429 H         1 LIV    0.0881
     75 HN31       17.1063  -11.3505   20.2928 H         1 LIV    0.1964
     76 HN32       16.8405   -9.7281   20.4234 H         1 LIV    0.1964
     77 HN33       16.0712  -10.5980   19.2523 H         1 LIV    0.1964
     78 H222       18.4759  -12.3602   18.4514 H         1 LIV    0.0384
     79 H223       17.3318  -11.6277   17.3016 H         1 LIV    0.0384
     80 H13        20.3682   -7.2449   15.4251 H         1 LIV    0.0953
     81 H23        17.9482   -5.6574   14.5643 H         1 LIV    0.0684
     82 HO23       18.8538   -6.1966   12.4873 H         1 LIV    0.2109
     83 H33        19.3659   -3.8356   13.9353 H         1 LIV    0.0663
     84 H43        20.9619   -3.8578   16.1610 H         1 LIV    0.0658
     85 H532       18.0457   -4.0341   16.9001 H         1 LIV    0.0592
     86 H533       18.5822   -2.6724   15.8809 H         1 LIV    0.0592
     87 HO53       18.8049   -2.2176   18.1650 H         1 LIV    0.2102
     88 H44        25.3365   -1.8898   12.6864 H         1 LIV    0.0665
     89 H34        24.5950   -3.9401   11.2203 H         1 LIV    0.0691
     90 HO34       22.5900   -2.8776   10.6327 H         1 LIV    0.2109
     91 H24        22.4307   -5.0570   11.7593 H         1 LIV    0.0933
     92 HN24       23.0907   -6.5022   13.3251 H         1 LIV    0.1967
     93 HN25       24.5483   -5.8690   12.8844 H         1 LIV    0.1967
     94 HN26       23.8227   -5.3745   14.2805 H         1 LIV    0.1967
     95 H14        21.2365   -3.2376   12.8874 H         1 LIV    0.0987
     96 H54        23.2823   -1.5385   13.5977 H         1 LIV    0.0690
     97 H642       24.0410   -0.4577   15.1574 H         1 LIV    0.0841
     98 H643       25.3977   -1.5828   15.3464 H         1 LIV    0.0841
     99 HN61       24.2936   -1.4499   17.3761 H         1 LIV    0.1961
    100 HN62       22.8022   -1.6608   16.7044 H         1 LIV    0.1961
    101 HN63       23.8735   -2.9143   16.7442 H         1 LIV    0.1961
    102 H15        27.6753   -4.1163   12.9453 H         1 LIV    0.0953
    103 H25        26.5484   -5.3102   14.8892 H         1 LIV    0.0684
    104 H35        26.1371   -3.6229   16.5023 H         1 LIV    0.0659
    105 H45        29.0748   -2.9885   16.7297 H         1 LIV    0.0658
    106 H55        27.0603   -1.3646   15.3768 H         1 LIV    0.0658
    107 H652       28.4918    0.0885   14.3342 H         1 LIV    0.0592
    108 H653       28.7230    0.0922   16.0983 H         1 LIV    0.0592
    109 HO25       28.6370   -5.8912   15.6434 H         1 LIV    0.2109
    110 HO35       27.4561   -4.5025   18.2150 H         1 LIV    0.2107
    111 HO45       28.1038   -1.2002   17.8769 H         1 LIV    0.2107
    112 HO65       30.7577    0.0393   14.9342 H         1 LIV    0.2102
@<TRIPOS>BOND
     1    1    2 1
     2    1    3 1
     3    1    9 1
     4    2   18 1
     5    3    4 1
     6    3    5 1
     7    5    6 1
     8    6    7 1
     9    6    8 1
    10    8    9 1
    11    8   10 1
    12   10   11 1
    13   12   13 1
    14   12   14 1
    15   12   21 1
    16   14   15 1
    17   14   16 1
    18   16   17 1
    19   16   18 1
    20   17   22 1
    21   18   19 1
    22   19   20 1
    23   19   21 1
    24   22   23 1
    25   22   27 1
    26   23   24 1
    27   23   25 1
    28   25   26 1
    29   25   37 1
    30   26   27 1
    31   26   28 1
    32   28   29 1
    33   30   31 1
    34   30   32 1
    35   30   38 1
    36   31   42 1
    37   32   33 1
    38   32   34 1
    39   34   35 1
    40   34   36 1
    41   36   37 1
    42   36   39 1
    43   38   39 1
    44   38   40 1
    45   40   41 1
    46   42   43 1
    47   42   51 1
    48   43   44 1
    49   43   48 1
    50   44   45 1
    51   44   49 1
    52   45   46 1
    53   45   50 1
    54   46   47 1
    55   46   51 1
    56   47   52 1
    57   53    1 1
    58   54    3 1
    59   55    4 1
    60   56    4 1
    61   57    4 1
    62   58    5 1
    63   59    5 1
    64   60    6 1
    65   61    7 1
    66   62    8 1
    67   63   10 1
    68   64   10 1
    69   65   11 1
    70   66   12 1
    71   67   13 1
    72   68   13 1
    73   69   13 1
    74   70   14 1
    75   71   15 1
    76   72   16 1
    77   73   18 1
    78   74   19 1
    79   75   20 1
    80   76   20 1
    81   77   20 1
    82   78   21 1
    83   79   21 1
    84   80   22 1
    85   81   23 1
    86   82   24 1
    87   83   25 1
    88   84   26 1
    89   85   28 1
    90   86   28 1
    91   87   29 1
    92   88   30 1
    93   89   32 1
    94   90   33 1
    95   91   34 1
    96   92   35 1
    97   93   35 1
    98   94   35 1
    99   95   36 1
   100   96   38 1
   101   97   40 1
   102   98   40 1
   103   99   41 1
   104  100   41 1
   105  101   41 1
   106  102   42 1
   107  103   43 1
   108  104   44 1
   109  105   45 1
   110  106   46 1
   111  107   47 1
   112  108   47 1
   113  109   48 1
   114  110   49 1
   115  111   50 1
   116  112   52 1
@<TRIPOS>SUBSTRUCTURE
     1 LIV     1 RESIDUE           4 A     LIV     0 ROOT
