@<TRIPOS>MOLECULE
2esj.pdb
1352 1456 42 0 0
NUCLEIC_ACID
AMBER ff14SB


@<TRIPOS>ATOM
      1 O5'         1.0360   25.5250    5.3640 O.3       1   G   -0.6223
      2 C5'         0.8140   26.9510    5.4150 C.3       1   G    0.0558
      3 C4'         0.7930   27.4330    6.8480 C.3       1   G    0.1065
      4 O4'        -0.5510   27.8200    7.2380 O.3       1   G   -0.3548
      5 C3'         1.2200   26.4140    7.8860 C.3       1   G    0.2022
      6 O3'         2.6440   26.4280    7.9510 O.3       1   G   -0.5246
      7 C2'         0.5410   26.9350    9.1540 C.3       1   G    0.0670
      8 O2'         1.2480   27.9940    9.7570 O.3       1   G   -0.6139
      9 C1'        -0.7690   27.5000    8.5990 C.3       1   G    0.0191
     10 N9         -1.9210   26.6100    8.6460 N.ar      1   G    0.0492
     11 C8         -2.4560   25.9280    7.5790 C.ar      1   G    0.1374
     12 N7         -3.5250   25.2490    7.8900 N.ar      1   G   -0.5709
     13 C5         -3.6980   25.4840    9.2460 C.ar      1   G    0.1744
     14 C6         -4.6880   25.0070   10.1330 C.2       1   G    0.4770
     15 O6         -5.6460   24.2740    9.8910 O.2       1   G   -0.5597
     16 N1         -4.4860   25.4680   11.4210 N.am      1   G   -0.4787
     17 C2         -3.4660   26.2950   11.8090 C.2       1   G    0.7657
     18 N2         -3.4500   26.6220   13.1190 N.pl3     1   G   -0.9672
     19 N3         -2.5350   26.7620   10.9870 N.2       1   G   -0.6323
     20 C4         -2.7100   26.3140    9.7310 C.ar      1   G    0.1222
     21 H5'         1.6156   27.4581    4.8779 H         1   G    0.0679
     22 H5''       -0.1401   27.1842    4.9424 H         1   G    0.0679
     23 H4'         1.4424   28.3046    6.9302 H         1   G    0.1174
     24 H3'         0.8527   25.4205    7.6290 H         1   G    0.0615
     25 H2'         0.3552   26.1286    9.8634 H         1   G    0.0972
     26 HO2'        2.0760   27.6643   10.1139 H         1   G    0.4186
     27 H1'        -1.0118   28.4152    9.1390 H         1   G    0.2006
     28 H8         -2.0342   25.9521    6.5851 H         1   G    0.1640
     29 H1         -5.1413   25.1719   12.1302 H         1   G    0.3424
     30 H21        -2.7264   27.2274   13.4796 H         1   G    0.4364
     31 H22        -4.1616   26.2611   13.7383 H         1   G    0.4364
     32 HO5'        0.5090   24.9716    4.7830 H         1   G    0.4295
     33 P           3.4210   25.3100    8.8000 P.3       2   C    1.1662
     34 OP1         4.8800   25.5690    8.6740 O.co2     2   C   -0.7760
     35 OP2         2.8810   23.9800    8.4420 O.co2     2   C   -0.7760
     36 O5'         2.9850   25.6570   10.2810 O.3       2   C   -0.4989
     37 C5'         3.2210   24.7370   11.3000 C.3       2   C    0.0558
     38 C4'         2.5800   25.1920   12.5720 C.3       2   C    0.1065
     39 O4'         1.2360   25.6900   12.3460 O.3       2   C   -0.3548
     40 C3'         2.3980   23.9930   13.4520 C.3       2   C    0.2022
     41 O3'         3.6210   23.7460   14.0930 O.3       2   C   -0.5246
     42 C2'         1.2190   24.3700   14.3250 C.3       2   C    0.0670
     43 O2'         1.6180   25.1860   15.4000 O.3       2   C   -0.6139
     44 C1'         0.3560   25.1450   13.3210 C.3       2   C    0.0066
     45 N1         -0.6250   24.3190   12.6020 N.am      2   C   -0.0484
     46 C2         -1.6530   23.7070   13.3070 C.2       2   C    0.7538
     47 O2         -1.7240   23.8720   14.5220 O.2       2   C   -0.6252
     48 N3         -2.5480   22.9520   12.6500 N.2       2   C   -0.7584
     49 C4         -2.4550   22.8040   11.3300 C.2       2   C    0.8185
     50 N4         -3.3920   22.0650   10.7080 N.pl3     2   C   -0.9530
     51 C5         -1.4110   23.4110   10.5810 C.2       2   C   -0.5215
     52 C6         -0.5240   24.1550   11.2520 C.2       2   C    0.0053
     53 H5'         4.2957   24.6400   11.4543 H         2   C    0.0679
     54 H5''        2.8088   23.7691   11.0146 H         2   C    0.0679
     55 H4'         3.1935   25.9451   13.0665 H         2   C    0.1174
     56 H3'         2.1319   23.1322   12.8385 H         2   C    0.0615
     57 H2'         0.6985   23.4814   14.6822 H         2   C    0.0972
     58 HO2'        0.8524   25.4086   15.9347 H         2   C    0.4186
     59 H1'        -0.1604   25.9549   13.8362 H         2   C    0.2029
     60 H41        -3.3519   21.9372    9.7069 H         2   C    0.4234
     61 H42        -4.1353   21.6382   11.2423 H         2   C    0.4234
     62 H5         -1.3364   23.2771    9.5119 H         2   C    0.1928
     63 H6          0.2834   24.6324   10.7167 H         2   C    0.1958
     64 P           4.2150   22.2750   14.0390 P.3       3   G    1.1662
     65 OP1         5.5540   22.2790   14.6770 O.co2     3   G   -0.7760
     66 OP2         4.0750   21.7940   12.6420 O.co2     3   G   -0.7760
     67 O5'         3.1870   21.5440   14.9990 O.3       3   G   -0.4989
     68 C5'         3.0160   22.0520   16.3050 C.3       3   G    0.0558
     69 C4'         2.0710   21.1920   17.0800 C.3       3   G    0.1065
     70 O4'         0.7000   21.5390   16.7700 O.3       3   G   -0.3548
     71 C3'         2.1620   19.7130   16.7920 C.3       3   G    0.2022
     72 O3'         3.2750   19.1550   17.4770 O.3       3   G   -0.5246
     73 C2'         0.8090   19.2450   17.3120 C.3       3   G    0.0670
     74 O2'         0.7740   19.2570   18.7290 O.3       3   G   -0.6139
     75 C1'        -0.1000   20.3700   16.8030 C.3       3   G    0.0191
     76 N9         -0.5940   20.1470   15.4490 N.ar      3   G    0.0492
     77 C8          0.0070   20.5470   14.2770 C.ar      3   G    0.1374
     78 N7         -0.6650   20.1970   13.2100 N.ar      3   G   -0.5709
     79 C5         -1.7760   19.5240   13.7090 C.ar      3   G    0.1744
     80 C6         -2.8500   18.8970   13.0320 C.2       3   G    0.4770
     81 O6         -3.0470   18.8190   11.8160 O.2       3   G   -0.5597
     82 N1         -3.7560   18.3170   13.9230 N.am      3   G   -0.4787
     83 C2         -3.6450   18.3410   15.2910 C.2       3   G    0.7657
     84 N2         -4.6190   17.7230   15.9760 N.pl3     3   G   -0.9672
     85 N3         -2.6480   18.9260   15.9400 N.2       3   G   -0.6323
     86 C4         -1.7520   19.4900   15.0910 C.ar      3   G    0.1222
     87 H5'         2.6149   23.0638   16.2468 H         3   G    0.0679
     88 H5''        3.9807   22.0752   16.8119 H         3   G    0.0679
     89 H4'         2.2419   21.3535   18.1443 H         3   G    0.1174
     90 H3'         2.2432   19.5353   15.7196 H         3   G    0.0615
     91 H2'         0.5270   18.2745   16.9038 H         3   G    0.0972
     92 HO2'        1.3379   18.5586   19.0694 H         3   G    0.4186
     93 H1'        -0.9372   20.5106   17.4866 H         3   G    0.2006
     94 H8          0.9378   21.0937   14.2417 H         3   G    0.1640
     95 H1         -4.5561   17.8424   13.5296 H         3   G    0.3424
     96 H21        -5.3782   17.2759   15.4822 H         3   G    0.4364
     97 H22        -4.5931   17.7048   16.9855 H         3   G    0.4364
     98 P           3.7350   17.6520   17.1510 P.3       4   U    1.1662
     99 OP1         4.7410   17.2960   18.1800 O.co2     4   U   -0.7760
    100 OP2         4.0840   17.5390   15.7130 O.co2     4   U   -0.7760
    101 O5'         2.3990   16.8420   17.4710 O.3       4   U   -0.4989
    102 C5'         2.1950   15.5100   17.0290 C.3       4   U    0.0558
    103 C4'         0.9730   14.9390   17.7040 C.3       4   U    0.1065
    104 O4'        -0.1810   15.7970   17.4640 O.3       4   U   -0.3548
    105 C3'         0.5390   13.5910   17.1700 C.3       4   U    0.2022
    106 O3'         1.3050   12.5470   17.7390 O.3       4   U   -0.5246
    107 C2'        -0.9290   13.5490   17.5640 C.3       4   U    0.0670
    108 O2'        -1.1010   13.2100   18.9270 O.3       4   U   -0.6139
    109 C1'        -1.3470   14.9980   17.2770 C.3       4   U    0.0674
    110 N1         -1.7770   15.1460   15.8770 N.am      4   U    0.0418
    111 C2         -3.0300   14.7090   15.5460 C.2       4   U    0.4687
    112 O2         -3.8120   14.2780   16.3600 O.2       4   U   -0.5477
    113 N3         -3.3420   14.7940   14.2170 N.am      4   U   -0.3549
    114 C4         -2.5500   15.2780   13.2060 C.2       4   U    0.5952
    115 O4         -2.9450   15.1980   12.0360 O.2       4   U   -0.5761
    116 C5         -1.2770   15.7550   13.6340 C.2       4   U   -0.3635
    117 C6         -0.9430   15.6730   14.9260 C.2       4   U   -0.1126
    118 H5'         2.0497   15.5038   15.9487 H         4   U    0.0679
    119 H5''        3.0660   14.9055   17.2822 H         4   U    0.0679
    120 H4'         1.1526   14.8638   18.7765 H         4   U    0.1174
    121 H3'         0.6336   13.5728   16.0843 H         4   U    0.0615
    122 H2'        -1.4780   12.8577   16.9247 H         4   U    0.0972
    123 HO2'       -2.0375   13.1936   19.1374 H         4   U    0.4186
    124 H1'        -2.1395   15.3106   17.9569 H         4   U    0.1824
    125 H3         -4.2582   14.4635   13.9496 H         4   U    0.3154
    126 H5         -0.5871   16.1797   12.9198 H         4   U    0.1811
    127 H6          0.0259   16.0379   15.2334 H         4   U    0.2188
    128 P           2.0210   11.4900   16.7650 P.3       5   C    1.1662
    129 OP1         2.6710   10.4780   17.6470 O.co2     5   C   -0.7760
    130 OP2         2.8300   12.2000   15.7410 O.co2     5   C   -0.7760
    131 O5'         0.7870   10.8150   16.0130 O.3       5   C   -0.4989
    132 C5'        -0.3360   10.3440   16.7500 C.3       5   C    0.0558
    133 C4'        -1.4770   10.0130   15.8220 C.3       5   C    0.1065
    134 O4'        -2.0200   11.2170   15.2020 O.3       5   C   -0.3548
    135 C3'        -1.1250    9.1600   14.6270 C.3       5   C    0.2022
    136 O3'        -0.9550    7.7930   14.9860 O.3       5   C   -0.5246
    137 C2'        -2.3460    9.3850   13.7440 C.3       5   C    0.0670
    138 O2'        -3.4700    8.6400   14.1610 O.3       5   C   -0.6139
    139 C1'        -2.5970   10.8820   13.9530 C.3       5   C    0.0066
    140 N1         -1.9380   11.6630   12.8970 N.am      5   C   -0.0484
    141 C2         -2.5390   11.7090   11.6250 C.2       5   C    0.7538
    142 O2         -3.6370   11.1270   11.4510 O.2       5   C   -0.6252
    143 N3         -1.9180   12.3680   10.6220 N.2       5   C   -0.7584
    144 C4         -0.7500   12.9640   10.8440 C.2       5   C    0.8185
    145 N4         -0.1560   13.5660    9.8180 N.pl3     5   C   -0.9530
    146 C5         -0.1310   12.9600   12.1350 C.2       5   C   -0.5215
    147 C6         -0.7570   12.3040   13.1240 C.2       5   C    0.0053
    148 H5'        -0.0520    9.4483   17.3024 H         5   C    0.0679
    149 H5''       -0.6547   11.1143   17.4522 H         5   C    0.0679
    150 H4'        -2.2655    9.5198   16.3905 H         5   C    0.1174
    151 H3'        -0.2273    9.5400   14.1393 H         5   C    0.0615
    152 H2'        -2.1106    9.1758   12.7005 H         5   C    0.0972
    153 HO2'       -3.9164    8.2775   13.3923 H         5   C    0.4186
    154 H1'        -3.6673   11.0880   13.9636 H         5   C    0.2029
    155 H41         0.7337   14.0259    9.9485 H         5   C    0.4234
    156 H42        -0.5945   13.5634    8.9082 H         5   C    0.4234
    157 H5          0.8069   13.4672   12.3068 H         5   C    0.1928
    158 H6         -0.3199   12.2837   14.1114 H         5   C    0.1958
    159 P           0.0110    6.8540   14.1050 P.3       6   A    1.1662
    160 OP1         0.1340    5.5840   14.8590 O.co2     6   A   -0.7760
    161 OP2         1.2350    7.5960   13.7270 O.co2     6   A   -0.7760
    162 O5'        -0.8240    6.5890   12.7670 O.3       6   A   -0.4989
    163 C5'        -2.1940    6.1760   12.8150 C.3       6   A    0.0558
    164 C4'        -2.7860    6.1400   11.4210 C.3       6   A    0.1065
    165 O4'        -2.9590    7.4830   10.9140 O.3       6   A   -0.3548
    166 C3'        -1.9170    5.4880   10.3680 C.3       6   A    0.2022
    167 O3'        -2.0150    4.0780   10.4130 O.3       6   A   -0.5246
    168 C2'        -2.4940    6.0520    9.0840 C.3       6   A    0.0670
    169 O2'        -3.6940    5.4320    8.6940 O.3       6   A   -0.6139
    170 C1'        -2.8090    7.4830    9.5060 C.3       6   A    0.0394
    171 N9         -1.7390    8.4090    9.1510 N.ar      6   A   -0.0251
    172 C8         -0.7850    8.9440    9.9700 C.ar      6   A    0.2006
    173 N7          0.0400    9.7600    9.3580 N.ar      6   A   -0.6073
    174 C5         -0.3990    9.7550    8.0440 C.ar      6   A    0.0515
    175 C6          0.0540   10.4200    6.8990 C.ar      6   A    0.7009
    176 N6          1.0850   11.2600    6.8970 N.pl3     6   A   -0.9019
    177 N1         -0.5950   10.1890    5.7360 N.ar      6   A   -0.7615
    178 C2         -1.6420    9.3490    5.7430 C.ar      6   A    0.5875
    179 N3         -2.1700    8.6740    6.7670 N.ar      6   A   -0.6997
    180 C4         -1.4930    8.9230    7.9000 C.ar      6   A    0.3053
    181 H5'        -2.2534    5.1808   13.2557 H         6   A    0.0679
    182 H5''       -2.7602    6.8764   13.4290 H         6   A    0.0679
    183 H4'        -3.7532    5.6384   11.4523 H         6   A    0.1174
    184 H3'        -0.8793    5.7999   10.4865 H         6   A    0.0615
    185 H2'        -1.7595    6.0309    8.2789 H         6   A    0.0972
    186 HO2'       -3.5149    4.5282    8.4244 H         6   A    0.4186
    187 H1'        -3.7401    7.8047    9.0395 H         6   A    0.2007
    188 H8         -0.7165    8.7162   11.0235 H         6   A    0.1553
    189 H61         1.3674   11.7108    6.0385 H         6   A    0.4115
    190 H62         1.5856   11.4472    7.7540 H         6   A    0.4115
    191 H2         -2.1240    9.1983    4.7884 H         6   A    0.0473
    192 P          -0.7450    3.1930    9.9970 P.3       7   C    1.1662
    193 OP1        -1.1550    1.7680   10.1080 O.co2     7   C   -0.7760
    194 OP2         0.4220    3.6800   10.7710 O.co2     7   C   -0.7760
    195 O5'        -0.5200    3.5650    8.4640 O.3       7   C   -0.4989
    196 C5'        -1.3600    3.0300    7.4450 C.3       7   C    0.0558
    197 C4'        -0.8890    3.4980    6.0900 C.3       7   C    0.1065
    198 O4'        -1.0010    4.9430    6.0420 O.3       7   C   -0.3548
    199 C3'         0.5890    3.2740    5.8290 C.3       7   C    0.2022
    200 O3'         0.8660    1.9390    5.4280 O.3       7   C   -0.5246
    201 C2'         0.8750    4.3010    4.7450 C.3       7   C    0.0670
    202 O2'         0.4140    3.9500    3.4580 O.3       7   C   -0.6139
    203 C1'         0.0610    5.4850    5.2600 C.3       7   C    0.0066
    204 N1          0.8930    6.3640    6.0990 N.am      7   C   -0.0484
    205 C2          1.7590    7.2390    5.4570 C.2       7   C    0.7538
    206 O2          1.8030    7.2150    4.2220 O.2       7   C   -0.6252
    207 N3          2.5410    8.0720    6.1870 N.2       7   C   -0.7584
    208 C4          2.4980    8.0200    7.5150 C.2       7   C    0.8185
    209 N4          3.3090    8.8130    8.1890 N.pl3     7   C   -0.9530
    210 C5          1.6180    7.1260    8.2090 C.2       7   C   -0.5215
    211 C6          0.8360    6.3250    7.4610 C.2       7   C    0.0053
    212 H5'        -2.3838    3.3669    7.6074 H         7   C    0.0679
    213 H5''       -1.3270    1.9412    7.4834 H         7   C    0.0679
    214 H4'        -1.4880    3.0434    5.3009 H         7   C    0.1174
    215 H3'         1.1614    3.5154    6.7246 H         7   C    0.0615
    216 H2'         1.9366    4.5468    4.7191 H         7   C    0.0972
    217 HO2'        0.9220    3.2054    3.1277 H         7   C    0.4186
    218 H1'        -0.3461    6.0490    4.4208 H         7   C    0.2029
    219 H41         3.9311    9.4368    7.6951 H         7   C    0.4234
    220 H42         3.3077    8.7962    9.1989 H         7   C    0.4234
    221 H5          1.5838    7.0963    9.2880 H         7   C    0.1928
    222 H6          0.1542    5.6422    7.9462 H         7   C    0.1958
    223 P           2.2470    1.2400    5.8790 P.3       8   A    1.1662
    224 OP1         2.0910   -0.1660    5.4100 O.co2     8   A   -0.7760
    225 OP2         2.5880    1.5090    7.3080 O.co2     8   A   -0.7760
    226 O5'         3.3380    1.9420    4.9600 O.3       8   A   -0.4989
    227 C5'         3.2310    1.8920    3.5360 C.3       8   A    0.0558
    228 C4'         4.2650    2.7990    2.9100 C.3       8   A    0.1065
    229 O4'         3.9690    4.2000    3.1980 O.3       8   A   -0.3548
    230 C3'         5.6740    2.6120    3.4450 C.3       8   A    0.2022
    231 O3'         6.3130    1.5080    2.8150 O.3       8   A   -0.5246
    232 C2'         6.3270    3.9390    3.0680 C.3       8   A    0.0670
    233 O2'         6.6670    3.9990    1.7020 O.3       8   A   -0.6139
    234 C1'         5.1870    4.9200    3.3250 C.3       8   A    0.0394
    235 N9          5.2590    5.4830    4.6720 N.ar      8   A   -0.0251
    236 C8          4.6010    5.0810    5.8010 C.ar      8   A    0.2006
    237 N7          4.8660    5.8130    6.8540 N.ar      8   A   -0.6073
    238 C5          5.7690    6.7580    6.3880 C.ar      8   A    0.0515
    239 C6          6.4270    7.8270    7.0100 C.ar      8   A    0.7009
    240 N6          6.2810    8.1410    8.3000 N.pl3     8   A   -0.9019
    241 N1          7.2520    8.5790    6.2610 N.ar      8   A   -0.7615
    242 C2          7.4010    8.2740    4.9630 C.ar      8   A    0.5875
    243 N3          6.8420    7.2930    4.2640 N.ar      8   A   -0.6997
    244 C4          6.0240    6.5620    5.0450 C.ar      8   A    0.3053
    245 H5'         3.3952    0.8691    3.1971 H         8   A    0.0679
    246 H5''        2.2349    2.2173    3.2361 H         8   A    0.0679
    247 H4'         4.2683    2.6477    1.8306 H         8   A    0.1174
    248 H3'         5.6610    2.4830    4.5273 H         8   A    0.0615
    249 H2'         7.1873    4.1536    3.7021 H         8   A    0.0972
    250 HO2'        7.3842    3.3865    1.5231 H         8   A    0.4186
    251 H1'         5.2188    5.7227    2.5882 H         8   A    0.2007
    252 H8          3.9257    4.2384    5.8224 H         8   A    0.1553
    253 H61         5.6674    7.5938    8.8866 H         8   A    0.4115
    254 H62         6.7842    8.9257    8.6888 H         8   A    0.4115
    255 H2          8.0693    8.9164    4.4089 H         8   A    0.0473
    256 P           7.2430    0.5260    3.6780 P.3       9   C    1.1662
    257 OP1         7.1820   -0.7950    3.0080 O.co2     9   C   -0.7760
    258 OP2         6.9400    0.6530    5.1230 O.co2     9   C   -0.7760
    259 O5'         8.7220    1.0740    3.4810 O.3       9   C   -0.4989
    260 C5'         9.2630    1.2640    2.1840 C.3       9   C    0.0558
    261 C4'        10.2110    2.4290    2.2120 C.3       9   C    0.1065
    262 O4'         9.4630    3.6250    2.5850 O.3       9   C   -0.3548
    263 C3'        11.2980    2.3840    3.2760 C.3       9   C    0.2022
    264 O3'        12.3870    1.5640    2.8780 O.3       9   C   -0.5246
    265 C2'        11.6970    3.8520    3.3270 C.3       9   C    0.0670
    266 O2'        12.4010    4.2290    2.1640 O.3       9   C   -0.6139
    267 C1'        10.3260    4.5260    3.2650 C.3       9   C    0.0066
    268 N1          9.7880    4.8020    4.6100 N.am      9   C   -0.0484
    269 C2         10.1320    6.0200    5.2080 C.2       9   C    0.7538
    270 O2         10.8620    6.7890    4.5900 O.2       9   C   -0.6252
    271 N3          9.6670    6.3230    6.4370 N.2       9   C   -0.7584
    272 C4          8.8900    5.4620    7.0860 C.2       9   C    0.8185
    273 N4          8.4810    5.8110    8.3310 N.pl3     9   C   -0.9530
    274 C5          8.5080    4.2030    6.5020 C.2       9   C   -0.5215
    275 C6          8.9850    3.9160    5.2700 C.2       9   C    0.0053
    276 H5'         9.7982    0.3655    1.8768 H         9   C    0.0679
    277 H5''        8.4569    1.4670    1.4790 H         9   C    0.0679
    278 H4'        10.6606    2.5648    1.2284 H         9   C    0.1174
    279 H3'        10.8930    2.0566    4.2335 H         9   C    0.0615
    280 H2'        12.2400    4.1017    4.2385 H         9   C    0.0972
    281 HO2'       13.2704    3.8220    2.1696 H         9   C    0.4186
    282 H1'        10.4006    5.4566    2.7024 H         9   C    0.2029
    283 H41         8.7638    6.6966    8.7257 H         9   C    0.4234
    284 H42         7.8936    5.1853    8.8635 H         9   C    0.4234
    285 H5          7.8645    3.5136    7.0283 H         9   C    0.1928
    286 H6          8.7285    2.9766    4.8030 H         9   C    0.1958
    287 P          13.4500    1.0370    3.9770 P.3      10   C    1.1662
    288 OP1        14.3370    0.1040    3.2380 O.co2    10   C   -0.7760
    289 OP2        12.8020    0.5970    5.2340 O.co2    10   C   -0.7760
    290 O5'        14.2860    2.3250    4.4050 O.3      10   C   -0.4989
    291 C5'        15.2190    2.9340    3.5310 C.3      10   C    0.0558
    292 C4'        15.8430    4.1360    4.2010 C.3      10   C    0.1065
    293 O4'        14.8100    5.1310    4.4740 O.3      10   C   -0.3548
    294 C3'        16.4600    3.9090    5.5750 C.3      10   C    0.2022
    295 O3'        17.7680    3.3650    5.5220 O.3      10   C   -0.5246
    296 C2'        16.5120    5.3310    6.1040 C.3      10   C    0.0670
    297 O2'        17.5170    6.0780    5.4480 O.3      10   C   -0.6139
    298 C1'        15.1440    5.8440    5.6610 C.3      10   C    0.0066
    299 N1         14.1180    5.5620    6.6710 N.am     10   C   -0.0484
    300 C2         14.0830    6.3330    7.8360 C.2      10   C    0.7538
    301 O2         14.9140    7.2320    7.9880 O.2      10   C   -0.6252
    302 N3         13.1400    6.0810    8.7660 N.2      10   C   -0.7584
    303 C4         12.2590    5.0970    8.5720 C.2      10   C    0.8185
    304 N4         11.3780    4.8610    9.5290 N.pl3    10   C   -0.9530
    305 C5         12.2610    4.3080    7.3930 C.2      10   C   -0.5215
    306 C6         13.2030    4.5680    6.4770 C.2      10   C    0.0053
    307 H5'        15.9991    2.2159    3.2781 H        10   C    0.0679
    308 H5''       14.7094    3.2506    2.6210 H        10   C    0.0679
    309 H4'        16.5921    4.5685    3.5377 H        10   C    0.1174
    310 H3'        15.8093    3.2905    6.1932 H        10   C    0.0615
    311 H2'        16.6260    5.3585    7.1877 H        10   C    0.0972
    312 HO2'       18.3812    5.7616    5.7212 H        10   C    0.4186
    313 H1'        15.1898    6.9140    5.4582 H        10   C    0.2029
    314 H41        11.3832    5.4211   10.3695 H        10   C    0.4234
    315 H42        10.6998    4.1206    9.4197 H        10   C    0.4234
    316 H5         11.5306    3.5273    7.2398 H        10   C    0.1928
    317 H6         13.2391    3.9819    5.5706 H        10   C    0.1958
    318 P          18.2950    2.4470    6.7370 P.3      11   G    1.1662
    319 OP1        19.5920    1.8480    6.3530 O.co2    11   G   -0.7760
    320 OP2        17.1720    1.5710    7.1970 O.co2    11   G   -0.7760
    321 O5'        18.6310    3.4800    7.8950 O.3      11   G   -0.4989
    322 C5'        19.5770    4.5240    7.6860 C.3      11   G    0.0558
    323 C4'        19.6090    5.4260    8.8930 C.3      11   G    0.1065
    324 O4'        18.2840    5.9980    9.1000 O.3      11   G   -0.3548
    325 C3'        19.8470    4.6790   10.1920 C.3      11   G    0.2022
    326 O3'        21.2290    4.4280   10.3990 O.3      11   G   -0.5246
    327 C2'        19.3010    5.6540   11.2170 C.3      11   G    0.0670
    328 O2'        20.2130    6.6980   11.4290 O.3      11   G   -0.6139
    329 C1'        18.0780    6.2030   10.4870 C.3      11   G    0.0191
    330 N9         16.8270    5.5760   10.8990 N.ar     11   G    0.0492
    331 C8         16.0730    4.6410   10.2390 C.ar     11   G    0.1374
    332 N7         14.9770    4.3250   10.8820 N.ar     11   G   -0.5709
    333 C5         15.0270    5.0880   12.0360 C.ar     11   G    0.1744
    334 C6         14.1280    5.1770   13.1290 C.2      11   G    0.4770
    335 O6         13.0500    4.5780   13.3070 O.2      11   G   -0.5597
    336 N1         14.5840    6.0820   14.0860 N.am     11   G   -0.4787
    337 C2         15.7480    6.8000   14.0010 C.2      11   G    0.7657
    338 N2         16.0320    7.6200   15.0120 N.pl3    11   G   -0.9672
    339 N3         16.5790    6.7200   13.0000 N.2      11   G   -0.6323
    340 C4         16.1650    5.8550   12.0610 C.ar     11   G    0.1222
    341 H5'        20.5654    4.0919    7.5299 H        11   G    0.0679
    342 H5''       19.2909    5.1027    6.8077 H        11   G    0.0679
    343 H4'        20.3506    6.2142    8.7628 H        11   G    0.1174
    344 H3'        19.2810    3.7476   10.2085 H        11   G    0.0615
    345 H2'        19.0294    5.1559   12.1477 H        11   G    0.0972
    346 HO2'       19.7987    7.3819   11.9602 H        11   G    0.4186
    347 H1'        18.0104    7.2744   10.6755 H        11   G    0.2006
    348 H8         16.3532    4.2104    9.2890 H        11   G    0.1640
    349 H1         14.0114    6.2193   14.9066 H        11   G    0.3424
    350 H21        15.3995    7.6929   15.7961 H        11   G    0.4364
    351 H22        16.8798    8.1687   14.9943 H        11   G    0.4364
    352 P          21.6760    3.2490   11.3890 P.3      12   G    1.1662
    353 OP1        23.1360    3.0960   11.1900 O.co2    12   G   -0.7760
    354 OP2        20.7670    2.0970   11.1980 O.co2    12   G   -0.7760
    355 O5'        21.4040    3.8100   12.8530 O.3      12   G   -0.4989
    356 C5'        22.1140    4.9340   13.3370 C.3      12   G    0.0558
    357 C4'        21.4820    5.4450   14.6080 C.3      12   G    0.1065
    358 O4'        20.1060    5.8290   14.3610 O.3      12   G   -0.3548
    359 C3'        21.3630    4.4330   15.7170 C.3      12   G    0.2022
    360 O3'        22.6080    4.3140   16.3830 O.3      12   G   -0.5246
    361 C2'        20.2720    5.0460   16.5850 C.3      12   G    0.0670
    362 O2'        20.7320    6.1090   17.3730 O.3      12   G   -0.6139
    363 C1'        19.3340    5.6150   15.5250 C.3      12   G    0.0191
    364 N9         18.2650    4.7010   15.1620 N.ar     12   G    0.0492
    365 C8         18.1920    3.9610   14.0120 C.ar     12   G    0.1374
    366 N7         17.1020    3.2500   13.9310 N.ar     12   G   -0.5709
    367 C5         16.4180    3.5410   15.0980 C.ar     12   G    0.1744
    368 C6         15.1690    3.0820   15.5480 C.2      12   G    0.4770
    369 O6         14.3870    2.3150   14.9730 O.2      12   G   -0.5597
    370 N1         14.8420    3.6160   16.7960 N.am     12   G   -0.4787
    371 C2         15.6270    4.4960   17.5030 C.2      12   G    0.7657
    372 N2         15.1150    4.9450   18.6660 N.pl3    12   G   -0.9672
    373 N3         16.8180    4.9220   17.0890 N.2      12   G   -0.6323
    374 C4         17.1360    4.4170   15.8810 C.ar     12   G    0.1222
    375 H5'        23.1462    4.6476   13.5387 H        12   G    0.0679
    376 H5''       22.0987    5.7221   12.5842 H        12   G    0.0679
    377 H4'        22.0398    6.3101   14.9665 H        12   G    0.1174
    378 H3'        21.0440    3.4678   15.3237 H        12   G    0.0615
    379 H2'        19.7741    4.2889   17.1908 H        12   G    0.0972
    380 HO2'       21.3256    5.7735   18.0488 H        12   G    0.4186
    381 H1'        18.9134    6.5595   15.8702 H        12   G    0.2006
    382 H8         18.9581    3.9658   13.2508 H        12   G    0.1640
    383 H1         13.9645    3.3353   17.2097 H        12   G    0.3424
    384 H21        14.2076    4.6266   18.9747 H        12   G    0.4364
    385 H22        15.6387    5.5999   19.2289 H        12   G    0.4364
    386 P          23.0300    2.9000   17.0330 P.3      13   U    1.1662
    387 OP1        24.3280    3.1410   17.7040 O.co2    13   U   -0.7760
    388 OP2        22.8990    1.8060   16.0460 O.co2    13   U   -0.7760
    389 O5'        21.9620    2.6870   18.1830 O.3      13   U   -0.4989
    390 C5'        22.0810    3.4300   19.3680 C.3      13   U    0.0558
    391 C4'        20.8700    3.2380   20.2150 C.3      13   U    0.1065
    392 O4'        19.7150    3.5570   19.4010 O.3      13   U   -0.3548
    393 C3'        20.5750    1.8210   20.6390 C.3      13   U    0.2022
    394 O3'        21.3490    1.4020   21.7570 O.3      13   U   -0.5246
    395 C2'        19.0990    1.9270   20.9880 C.3      13   U    0.0670
    396 O2'        18.8840    2.6340   22.1780 O.3      13   U   -0.6139
    397 C1'        18.5960    2.8080   19.8550 C.3      13   U    0.0674
    398 N1         18.0580    2.0290   18.7350 N.am     13   U    0.0418
    399 C2         16.8230    1.4690   18.9110 C.2      13   U    0.4687
    400 O2         16.1980    1.5910   19.9460 O.2      13   U   -0.5477
    401 N3         16.3450    0.7670   17.8370 N.am     13   U   -0.3549
    402 C4         16.9760    0.5790   16.6280 C.2      13   U    0.5952
    403 O4         16.4040   -0.0480   15.7370 O.2      13   U   -0.5761
    404 C5         18.2620    1.1840   16.5260 C.2      13   U   -0.3635
    405 C6         18.7500    1.8710   17.5620 C.2      13   U   -0.1126
    406 H5'        22.9615    3.0955   19.9165 H        13   U    0.0679
    407 H5''       22.1873    4.4868   19.1232 H        13   U    0.0679
    408 H4'        20.9106    3.8922   21.0859 H        13   U    0.1174
    409 H3'        20.7181    1.1377   19.8019 H        13   U    0.0615
    410 H2'        18.6098    0.9530   20.9968 H        13   U    0.0972
    411 HO2'       17.9465    2.8151   22.2777 H        13   U    0.4186
    412 H1'        17.8298    3.4860   20.2309 H        13   U    0.1824
    413 H3         15.4345    0.3429   17.9428 H        13   U    0.3154
    414 H5         18.8379    1.0877   15.6175 H        13   U    0.1811
    415 H6         19.7282    2.3198   17.4723 H        13   U    0.2188
    416 P          21.5060   -0.1730   22.0440 P.3      14   G    1.1662
    417 OP1        22.4500   -0.3660   23.1680 O.co2    14   G   -0.7760
    418 OP2        21.7650   -0.8190   20.7360 O.co2    14   G   -0.7760
    419 O5'        20.0620   -0.6240   22.5390 O.3      14   G   -0.4989
    420 C5'        19.4690   -0.0270   23.6820 C.3      14   G    0.0558
    421 C4'        18.1410   -0.6780   23.9790 C.3      14   G    0.1065
    422 O4'        17.1660   -0.3320   22.9650 O.3      14   G   -0.3548
    423 C3'        18.1420   -2.1850   23.9350 C.3      14   G    0.2022
    424 O3'        18.6900   -2.7180   25.1260 O.3      14   G   -0.5246
    425 C2'        16.6630   -2.4850   23.7930 C.3      14   G    0.0670
    426 O2'        15.9930   -2.2830   25.0180 O.3      14   G   -0.6139
    427 C1'        16.2440   -1.4040   22.8040 C.3      14   G    0.0191
    428 N9         16.2930   -1.8100   21.4050 N.ar     14   G    0.0492
    429 C8         17.3560   -1.6580   20.5610 C.ar     14   G    0.1374
    430 N7         17.1020   -2.0610   19.3480 N.ar     14   G   -0.5709
    431 C5         15.7970   -2.5200   19.4030 C.ar     14   G    0.1744
    432 C6         14.9920   -3.0640   18.3980 C.2      14   G    0.4770
    433 O6         15.2710   -3.2730   17.2180 O.2      14   G   -0.5597
    434 N1         13.7390   -3.3820   18.8660 N.am     14   G   -0.4787
    435 C2         13.3210   -3.2080   20.1500 C.2      14   G    0.7657
    436 N2         12.0690   -3.5970   20.4080 N.pl3    14   G   -0.9672
    437 N3         14.0680   -2.6980   21.1060 N.2      14   G   -0.6323
    438 C4         15.2860   -2.3780   20.6630 C.ar     14   G    0.1222
    439 H5'        19.3151    1.0356   23.4942 H        14   G    0.0679
    440 H5''       20.1315   -0.1503   24.5388 H        14   G    0.0679
    441 H4'        17.7841   -0.3444   24.9534 H        14   G    0.1174
    442 H3'        18.6920   -2.5436   23.0649 H        14   G    0.0615
    443 H2'        16.4892   -3.4854   23.3968 H        14   G    0.0972
    444 HO2'       16.2555   -2.9630   25.6427 H        14   G    0.4186
    445 H1'        15.2392   -1.0587   23.0472 H        14   G    0.2006
    446 H8         18.3069   -1.2471   20.8667 H        14   G    0.1640
    447 H1         13.0798   -3.7737   18.2086 H        14   G    0.3424
    448 H21        11.5000   -3.9890   19.6713 H        14   G    0.4364
    449 H22        11.6916   -3.4990   21.3397 H        14   G    0.4364
    450 P          19.7680   -3.8970   25.0240 P.3      15   A    1.1662
    451 OP1        20.7050   -3.7100   26.1590 O.co2    15   A   -0.7760
    452 OP2        20.3060   -3.9900   23.6390 O.co2    15   A   -0.7760
    453 O5'        18.8840   -5.1970   25.2280 O.3      15   A   -0.4989
    454 C5'        18.8010   -5.8130   26.4900 C.3      15   A    0.0558
    455 C4'        19.2210   -7.2670   26.3960 C.3      15   A    0.1065
    456 O4'        19.4180   -7.7190   27.7550 O.3      15   A   -0.3548
    457 C3'        18.2480   -8.2700   25.7640 C.3      15   A    0.2022
    458 O3'        18.5290   -8.4860   24.3750 O.3      15   A   -0.5246
    459 C2'        18.6310   -9.5450   26.4840 C.3      15   A    0.0670
    460 O2'        19.8370  -10.0120   25.9210 O.3      15   A   -0.6139
    461 C1'        18.9370   -9.0300   27.8910 C.3      15   A    0.0394
    462 N9         17.8240   -8.9840   28.8340 N.ar     15   A   -0.0251
    463 C8         17.1360   -7.8780   29.2620 C.ar     15   A    0.2006
    464 N7         16.2240   -8.1410   30.1670 N.ar     15   A   -0.6073
    465 C5         16.3130   -9.5160   30.3340 C.ar     15   A    0.0515
    466 C6         15.6290  -10.4060   31.1630 C.ar     15   A    0.7009
    467 N6         14.6650  -10.0320   32.0090 N.pl3    15   A   -0.9019
    468 N1         15.9660  -11.7140   31.1000 N.ar     15   A   -0.7615
    469 C2         16.9210  -12.0860   30.2410 C.ar     15   A    0.5875
    470 N3         17.6350  -11.3390   29.4010 N.ar     15   A   -0.6997
    471 C4         17.2810  -10.0480   29.5050 C.ar     15   A    0.3053
    472 H5'        17.7734   -5.7584   26.8495 H        15   A    0.0679
    473 H5''       19.4558   -5.2928   27.1891 H        15   A    0.0679
    474 H4'        20.1727   -7.3226   25.8676 H        15   A    0.1174
    475 H3'        17.2067   -7.9973   25.9357 H        15   A    0.0615
    476 H2'        17.8390  -10.2938   26.4699 H        15   A    0.0972
    477 HO2'       20.1033  -10.8226   26.3610 H        15   A    0.4186
    478 H1'        19.7279   -9.6454   28.3198 H        15   A    0.2007
    479 H8         17.3273   -6.8828   28.8886 H        15   A    0.1553
    480 H61        14.3975   -9.0601   32.0720 H        15   A    0.4115
    481 H62        14.2037  -10.7211   32.5855 H        15   A    0.4115
    482 H2         17.1451  -13.1424   30.2264 H        15   A    0.0473
    483 P          17.3510   -8.9400   23.3670 P.3      16   A    1.1662
    484 OP1        17.9450   -9.1650   22.0230 O.co2    16   A   -0.7760
    485 OP2        16.2410   -8.0460   23.6120 O.co2    16   A   -0.7760
    486 O5'        16.8060  -10.3050   23.9670 O.3      16   A   -0.4989
    487 C5'        17.3690  -11.5610   23.6030 C.3      16   A    0.0558
    488 C4'        16.5220  -12.6680   24.1740 C.3      16   A    0.1065
    489 O4'        16.4820  -12.5130   25.6200 O.3      16   A   -0.3548
    490 C3'        15.0540  -12.6190   23.7570 C.3      16   A    0.2022
    491 O3'        14.8140  -13.1930   22.4670 O.3      16   A   -0.5246
    492 C2'        14.3330  -13.2930   24.9140 C.3      16   A    0.0670
    493 O2'        14.3120  -14.7090   24.8510 O.3      16   A   -0.6139
    494 C1'        15.1890  -12.8440   26.1000 C.3      16   A    0.0394
    495 N9         14.6410  -11.6790   26.7760 N.ar     16   A   -0.0251
    496 C8         14.7300  -10.3590   26.4120 C.ar     16   A    0.2006
    497 N7         14.1600   -9.5400   27.2630 N.ar     16   A   -0.6073
    498 C5         13.6530  -10.3770   28.2480 C.ar     16   A    0.0515
    499 C6         12.9400  -10.1260   29.4250 C.ar     16   A    0.7009
    500 N6         12.6250   -8.8990   29.8480 N.pl3    16   A   -0.9019
    501 N1         12.5610  -11.1910   30.1730 N.ar     16   A   -0.7615
    502 C2         12.8930  -12.4150   29.7560 C.ar     16   A    0.5875
    503 N3         13.5720  -12.7790   28.6720 N.ar     16   A   -0.6997
    504 C4         13.9270  -11.6990   27.9520 C.ar     16   A    0.3053
    505 H5'        18.3815  -11.6352   23.9998 H        16   A    0.0679
    506 H5''       17.3964  -11.6467   22.5167 H        16   A    0.0679
    507 H4'        16.9506  -13.6362   23.9150 H        16   A    0.1174
    508 H3'        14.7445  -11.5743   23.7266 H        16   A    0.0615
    509 H2'        13.3197  -12.9026   25.0084 H        16   A    0.0972
    510 HO2'       13.7981  -15.0548   25.5845 H        16   A    0.4186
    511 H1'        15.2714  -13.6648   26.8124 H        16   A    0.2007
    512 H8         15.2226  -10.0262   25.5104 H        16   A    0.1553
    513 H61        12.9010   -8.0920   29.3071 H        16   A    0.4115
    514 H62        12.1108   -8.7781   30.7088 H        16   A    0.4115
    515 H2         12.5631  -13.2252   30.3894 H        16   A    0.0473
    516 P          15.4010  -14.6580   22.0840 P.3      17   G    1.1662
    517 OP1        15.3770  -15.6190   23.2230 O.co2    17   G   -0.7760
    518 OP2        16.6850  -14.4170   21.3510 O.co2    17   G   -0.7760
    519 O5'        14.3450  -15.1830   21.0180 O.3      17   G   -0.4989
    520 C5'        12.9810  -15.3430   21.3630 C.3      17   G    0.0558
    521 C4'        12.1320  -15.1630   20.1370 C.3      17   G    0.1065
    522 O4'        11.7730  -13.7670   19.9410 O.3      17   G   -0.3548
    523 C3'        12.8160  -15.5600   18.8390 C.3      17   G    0.2022
    524 O3'        12.7360  -16.9710   18.6730 O.3      17   G   -0.5246
    525 C2'        11.9570  -14.8220   17.8260 C.3      17   G    0.0670
    526 O2'        10.7160  -15.4700   17.6470 O.3      17   G   -0.6139
    527 C1'        11.7340  -13.4870   18.5440 C.3      17   G    0.0191
    528 N9         12.8110  -12.5500   18.2310 N.ar     17   G    0.0492
    529 C8         13.7600  -12.0390   19.0940 C.ar     17   G    0.1374
    530 N7         14.6330  -11.2710   18.4980 N.ar     17   G   -0.5709
    531 C5         14.2300  -11.2610   17.1710 C.ar     17   G    0.1744
    532 C6         14.7950  -10.6190   16.0560 C.2      17   G    0.4770
    533 O6         15.8160   -9.9130   16.0000 O.2      17   G   -0.5597
    534 N1         14.0630  -10.8720   14.9000 N.am     17   G   -0.4787
    535 C2         12.9400  -11.6540   14.8240 C.2      17   G    0.7657
    536 N2         12.3870  -11.7660   13.6150 N.pl3    17   G   -0.9672
    537 N3         12.4060  -12.2750   15.8590 N.2      17   G   -0.6323
    538 C4         13.0970  -12.0350   16.9940 C.ar     17   G    0.1222
    539 H5'        12.8238  -16.3416   21.7707 H        17   G    0.0679
    540 H5''       12.7048  -14.5980   22.1092 H        17   G    0.0679
    541 H4'        11.2203  -15.7497   20.2495 H        17   G    0.1174
    542 H3'        13.8493  -15.2141   18.8117 H        17   G    0.0615
    543 H2'        12.4796  -14.6864   16.8791 H        17   G    0.0972
    544 HO2'       10.1380  -14.9142   17.1192 H        17   G    0.4186
    545 H1'        10.7686  -13.0630   18.2677 H        17   G    0.2006
    546 H8         13.7788  -12.2522   20.1526 H        17   G    0.1640
    547 H1         14.3866  -10.4432   14.0447 H        17   G    0.3424
    548 H21        12.7984  -11.2892   12.8254 H        17   G    0.4364
    549 H22        11.5570  -12.3276   13.4894 H        17   G    0.4364
    550 P          13.8490  -17.7550   17.8120 P.3      18   U    1.1662
    551 OP1        13.5100  -19.1990   17.9850 O.co2    18   U   -0.7760
    552 OP2        15.2120  -17.2740   18.1600 O.co2    18   U   -0.7760
    553 O5'        13.5360  -17.3740   16.2920 O.3      18   U   -0.4989
    554 C5'        12.2440  -17.5950   15.7460 C.3      18   U    0.0558
    555 C4'        12.1520  -17.0040   14.3680 C.3      18   U    0.1065
    556 O4'        12.3570  -15.5660   14.4230 O.3      18   U   -0.3548
    557 C3'        13.2280  -17.4480   13.4020 C.3      18   U    0.2022
    558 O3'        12.9380  -18.7310   12.8740 O.3      18   U   -0.5246
    559 C2'        13.1300  -16.3680   12.3350 C.3      18   U    0.0670
    560 O2'        11.9820  -16.5530   11.5310 O.3      18   U   -0.6139
    561 C1'        12.9300  -15.1210   13.1990 C.3      18   U    0.0674
    562 N1         14.1880  -14.4060   13.4800 N.am     18   U    0.0418
    563 C2         14.8060  -13.7810   12.4160 C.2      18   U    0.4687
    564 O2         14.3670  -13.8360   11.2860 O.2      18   U   -0.5477
    565 N3         15.9590  -13.0990   12.7220 N.am     18   U   -0.3549
    566 C4         16.5470  -12.9880   13.9680 C.2      18   U    0.5952
    567 O4         17.5050  -12.2260   14.1160 O.2      18   U   -0.5761
    568 C5         15.8610  -13.6910   15.0190 C.2      18   U   -0.3635
    569 C6         14.7320  -14.3540   14.7440 C.2      18   U   -0.1126
    570 H5'        12.0559  -18.6672   15.6905 H        18   U    0.0679
    571 H5''       11.4963  -17.1302   16.3887 H        18   U    0.0679
    572 H4'        11.1706  -17.2169   13.9443 H        18   U    0.1174
    573 H3'        14.2081  -17.4360   13.8789 H        18   U    0.0615
    574 H2'        14.0388  -16.3054   11.7364 H        18   U    0.0972
    575 HO2'       12.0963  -17.3335   10.9839 H        18   U    0.4186
    576 H1'        12.2351  -14.4451   12.7006 H        18   U    0.1824
    577 H3         16.4247  -12.6307   11.9579 H        18   U    0.3154
    578 H5         16.2552  -13.6836   16.0245 H        18   U    0.1811
    579 H6         14.2262  -14.8699   15.5467 H        18   U    0.2188
    580 P          14.1390  -19.6680   12.3730 P.3      19   C    1.1662
    581 OP1        13.5100  -20.9760   12.0630 O.co2    19   C   -0.7760
    582 OP2        15.2420  -19.6110   13.3600 O.co2    19   C   -0.7760
    583 O5'        14.6600  -18.9980   11.0240 O.3      19   C   -0.4989
    584 C5'        13.9300  -19.1210    9.8170 C.3      19   C    0.0558
    585 C4'        14.6100  -18.3480    8.7120 C.3      19   C    0.1065
    586 O4'        14.6760  -16.9490    9.1000 O.3      19   C   -0.3548
    587 C3'        16.0640  -18.6890    8.4470 C.3      19   C    0.2022
    588 O3'        16.2060  -19.8040    7.5870 O.3      19   C   -0.5246
    589 C2'        16.5400  -17.4360    7.7430 C.3      19   C    0.0670
    590 O2'        16.0320  -17.3670    6.4330 O.3      19   C   -0.6139
    591 C1'        15.8680  -16.3660    8.5930 C.3      19   C    0.0066
    592 N1         16.7140  -15.9680    9.7300 N.am     19   C   -0.0484
    593 C2         17.7910  -15.1390    9.4910 C.2      19   C    0.7538
    594 O2         18.0170  -14.7780    8.3260 O.2      19   C   -0.6252
    595 N3         18.5620  -14.7490   10.5250 N.2      19   C   -0.7584
    596 C4         18.2800  -15.1660   11.7620 C.2      19   C    0.8185
    597 N4         19.0550  -14.7420   12.7660 N.pl3    19   C   -0.9530
    598 C5         17.1940  -16.0280   12.0300 C.2      19   C   -0.5215
    599 C6         16.4400  -16.4040   10.9960 C.2      19   C    0.0053
    600 H5'        13.8727  -20.1729    9.5372 H        19   C    0.0679
    601 H5''       12.9227  -18.7311    9.9631 H        19   C    0.0679
    602 H4'        14.0368  -18.4459    7.7901 H        19   C    0.1174
    603 H3'        16.6059  -18.8432    9.3801 H        19   C    0.0615
    604 H2'        17.6262  -17.3471    7.7625 H        19   C    0.0972
    605 HO2'       16.2143  -16.4994    6.0646 H        19   C    0.4186
    606 H1'        15.6291  -15.4963    7.9810 H        19   C    0.2029
    607 H41        19.8314  -14.1239   12.5783 H        19   C    0.4234
    608 H42        18.8639  -15.0398   13.7120 H        19   C    0.4234
    609 H5         16.9823  -16.3693   13.0326 H        19   C    0.1928
    610 H6         15.6004  -17.0628   11.1616 H        19   C    0.1958
    611 P          17.4770  -20.7660    7.7520 P.3      20   G    1.1662
    612 OP1        17.1740  -21.9920    6.9790 O.co2    20   G   -0.7760
    613 OP2        17.7540  -20.8620    9.2180 O.co2    20   G   -0.7760
    614 O5'        18.6510  -19.9990    7.0000 O.3      20   G   -0.4989
    615 C5'        18.4610  -19.5380    5.6730 C.3      20   G    0.0558
    616 C4'        19.5500  -18.5730    5.2960 C.3      20   G    0.1065
    617 O4'        19.4210  -17.3600    6.0810 O.3      20   G   -0.3548
    618 C3'        20.9540  -19.0540    5.6010 C.3      20   G    0.2022
    619 O3'        21.4300  -19.9360    4.5870 O.3      20   G   -0.5246
    620 C2'        21.7300  -17.7390    5.6730 C.3      20   G    0.0670
    621 O2'        22.0790  -17.2130    4.4080 O.3      20   G   -0.6139
    622 C1'        20.7090  -16.8270    6.3550 C.3      20   G    0.0191
    623 N9         20.8800  -16.7780    7.8020 N.ar     20   G    0.0492
    624 C8         20.1120  -17.4080    8.7500 C.ar     20   G    0.1374
    625 N7         20.5020  -17.1580    9.9720 N.ar     20   G   -0.5709
    626 C5         21.5960  -16.3130    9.8160 C.ar     20   G    0.1744
    627 C6         22.4300  -15.7000   10.7830 C.2      20   G    0.4770
    628 O6         22.3530  -15.7510   12.0160 O.2      20   G   -0.5597
    629 N1         23.4320  -14.9580   10.1900 N.am     20   G   -0.4787
    630 C2         23.6080  -14.8060    8.8420 C.2      20   G    0.7657
    631 N2         24.6740  -14.0740    8.4560 N.pl3    20   G   -0.9672
    632 N3         22.8150  -15.3390    7.9290 N.2      20   G   -0.6323
    633 C4         21.8440  -16.0790    8.4830 C.ar     20   G    0.1222
    634 H5'        18.4815  -20.3878    4.9907 H        20   G    0.0679
    635 H5''       17.4948  -19.0389    5.5991 H        20   G    0.0679
    636 H4'        19.4706  -18.3307    4.2362 H        20   G    0.1174
    637 H3'        20.9751  -19.5532    6.5697 H        20   G    0.0615
    638 H2'        22.6166  -17.8528    6.2967 H        20   G    0.0972
    639 HO2'       21.2936  -17.1521    3.8593 H        20   G    0.4186
    640 H1'        20.7841  -15.8206    5.9431 H        20   G    0.2006
    641 H8         19.2727  -18.0441    8.5106 H        20   G    0.1640
    642 H1         24.0871  -14.4902   10.8000 H        20   G    0.3424
    643 H21        25.2864  -13.6690    9.1496 H        20   G    0.4364
    644 H22        24.8594  -13.9312    7.4735 H        20   G    0.4364
    645 P          22.5740  -21.0240    4.9370 P.3      21   C    1.1662
    646 OP1        22.8770  -21.6840    3.6350 O.co2    21   C   -0.7760
    647 OP2        22.1700  -21.8450    6.1150 O.co2    21   C   -0.7760
    648 O5'        23.8400  -20.1550    5.3580 O.3      21   C   -0.4989
    649 C5'        24.5840  -19.4490    4.3760 C.3      21   C    0.0558
    650 C4'        25.6810  -18.6480    5.0240 C.3      21   C    0.1065
    651 O4'        25.0950  -17.7490    6.0000 O.3      21   C   -0.3548
    652 C3'        26.6950  -19.4010    5.8690 C.3      21   C    0.2022
    653 O3'        27.6740  -20.2170    5.2010 O.3      21   C   -0.6541
    654 C2'        27.3130  -18.2490    6.6370 C.3      21   C    0.0670
    655 O2'        28.0820  -17.4370    5.7660 O.3      21   C   -0.6139
    656 C1'        26.0560  -17.4690    7.0170 C.3      21   C    0.0066
    657 N1         25.4940  -17.8660    8.3200 N.am     21   C   -0.0484
    658 C2         26.0070  -17.2830    9.4810 C.2      21   C    0.7538
    659 O2         26.9350  -16.4920    9.3810 O.2      21   C   -0.6252
    660 N3         25.4710  -17.5970   10.6810 N.2      21   C   -0.7584
    661 C4         24.4580  -18.4640   10.7470 C.2      21   C    0.8185
    662 N4         23.9350  -18.7300   11.9490 N.pl3    21   C   -0.9530
    663 C5         23.9300  -19.0960    9.5790 C.2      21   C   -0.5215
    664 C6         24.4760  -18.7740    8.3980 C.2      21   C    0.0053
    665 H5'        25.0239  -20.1614    3.6781 H        21   C    0.0679
    666 H5''       23.9188  -18.7769    3.8338 H        21   C    0.0679
    667 H4'        26.2030  -18.0670    4.2637 H        21   C    0.1174
    668 H3'        26.1516  -20.0291    6.5749 H        21   C    0.0615
    669 HO3'       27.2319  -20.9285    4.7320 H        21   C    0.4376
    670 H2'        27.8784  -18.5816    7.5075 H        21   C    0.0972
    671 HO2'       28.8801  -17.9061    5.5118 H        21   C    0.4186
    672 H1'        26.2777  -16.4018    7.0254 H        21   C    0.2029
    673 H41        24.3085  -18.2808   12.7729 H        21   C    0.4234
    674 H42        23.1665  -19.3800   12.0327 H        21   C    0.4234
    675 H5         23.1202  -19.8075    9.6455 H        21   C    0.1928
    676 H6         24.1063  -19.2386    7.4958 H        21   C    0.1958
    677 O5'        27.6510  -12.3200   18.9340 O.3      22   G   -0.6223
    678 C5'        29.0340  -11.9370   19.1550 C.3      22   G    0.0558
    679 C4'        29.8550  -12.1580   17.8930 C.3      22   G    0.1065
    680 O4'        29.8550  -13.5780   17.5680 O.3      22   G   -0.3548
    681 C3'        29.3240  -11.5020   16.6230 C.3      22   G    0.2022
    682 O3'        29.7220  -10.1420   16.5070 O.3      22   G   -0.5246
    683 C2'        29.9350  -12.3740   15.5300 C.3      22   G    0.0670
    684 O2'        31.3080  -12.0920   15.3410 O.3      22   G   -0.6139
    685 C1'        29.7940  -13.7580   16.1560 C.3      22   G    0.0191
    686 N9         28.5470  -14.4600   15.8580 N.ar     22   G    0.0492
    687 C8         27.5590  -14.7790   16.7600 C.ar     22   G    0.1374
    688 N7         26.5910  -15.4850   16.2350 N.ar     22   G   -0.5709
    689 C5         26.9510  -15.6280   14.9000 C.ar     22   G    0.1744
    690 C6         26.2970  -16.3140   13.8400 C.2      22   G    0.4770
    691 O6         25.2780  -17.0050   13.8850 O.2      22   G   -0.5597
    692 N1         26.9730  -16.1610   12.6370 N.am     22   G   -0.4787
    693 C2         28.1520  -15.4780   12.4770 C.2      22   G    0.7657
    694 N2         28.6580  -15.4570   11.2320 N.pl3    22   G   -0.9672
    695 N3         28.7960  -14.8620   13.4650 N.2      22   G   -0.6323
    696 C4         28.1400  -14.9750   14.6400 C.ar     22   G    0.1222
    697 H5'        29.0749  -10.8830   19.4297 H        22   G    0.0679
    698 H5''       29.4492  -12.5369   19.9648 H        22   G    0.0679
    699 H4'        30.8793  -11.8285   18.0674 H        22   G    0.1174
    700 H3'        28.2369  -11.5753   16.5931 H        22   G    0.0615
    701 H2'        29.3773  -12.2970   14.5966 H        22   G    0.0972
    702 HO2'       31.4052  -11.2220   14.9471 H        22   G    0.4186
    703 H1'        30.6338  -14.3772   15.8407 H        22   G    0.2006
    704 H8         27.5802  -14.4772   17.7968 H        22   G    0.1640
    705 H1         26.5653  -16.5853   11.8162 H        22   G    0.3424
    706 H21        28.1714  -15.9256   10.4812 H        22   G    0.4364
    707 H22        29.5248  -14.9726   11.0473 H        22   G    0.4364
    708 HO5'       27.0237  -12.3762   19.6585 H        22   G    0.4295
    709 P          28.6640   -9.0610   15.9720 P.3      23   C    1.1662
    710 OP1        29.2340   -7.7070   16.1820 O.co2    23   C   -0.7760
    711 OP2        27.3580   -9.4100   16.5800 O.co2    23   C   -0.7760
    712 O5'        28.5890   -9.3310   14.4000 O.3      23   C   -0.4989
    713 C5'        29.7240   -9.1240   13.5610 C.3      23   C    0.0558
    714 C4'        29.4430   -9.6330   12.1620 C.3      23   C    0.1065
    715 O4'        29.2000  -11.0680   12.2010 O.3      23   C   -0.3548
    716 C3'        28.1710   -9.1110   11.5300 C.3      23   C    0.2022
    717 O3'        28.3230   -7.8050   11.0130 O.3      23   C   -0.5246
    718 C2'        27.9020  -10.1440   10.4440 C.3      23   C    0.0670
    719 O2'        28.6890   -9.9900    9.2850 O.3      23   C   -0.6139
    720 C1'        28.2930  -11.4300   11.1650 C.3      23   C    0.0066
    721 N1         27.1260  -12.0800   11.7730 N.am     23   C   -0.0484
    722 C2         26.2610  -12.8040   10.9550 C.2      23   C    0.7538
    723 O2         26.4790  -12.8460    9.7410 O.2      23   C   -0.6252
    724 N3         25.2110  -13.4330   11.4990 N.2      23   C   -0.7584
    725 C4         24.9990  -13.3600   12.8110 C.2      23   C    0.8185
    726 N4         23.9620  -14.0390   13.3120 N.pl3    23   C   -0.9530
    727 C5         25.8430  -12.5980   13.6720 C.2      23   C   -0.5215
    728 C6         26.8890  -11.9820   13.1130 C.2      23   C    0.0053
    729 H5'        29.9493   -8.0584   13.5174 H        23   C    0.0679
    730 H5''       30.5802   -9.6574   13.9740 H        23   C    0.0679
    731 H4'        30.2926   -9.4195   11.5134 H        23   C    0.1174
    732 H3'        27.3629   -9.1261   12.2614 H        23   C    0.0615
    733 H2'        26.8430  -10.1587   10.1862 H        23   C    0.0972
    734 HO2'       28.1419  -10.1207    8.5070 H        23   C    0.4186
    735 H1'        28.7782  -12.1137   10.4684 H        23   C    0.2029
    736 H41        23.7715  -14.0108   14.3035 H        23   C    0.4234
    737 H42        23.3691  -14.5802   12.6990 H        23   C    0.4234
    738 H5         25.6451  -12.5220   14.7310 H        23   C    0.1928
    739 H6         27.5559  -11.3986   13.7305 H        23   C    0.1958
    740 P          27.0420   -6.8420   10.9350 P.3      24   G    1.1662
    741 OP1        27.5280   -5.4830   10.5460 O.co2    24   G   -0.7760
    742 OP2        26.2780   -7.0220   12.1950 O.co2    24   G   -0.7760
    743 O5'        26.1880   -7.4350    9.7280 O.3      24   G   -0.4989
    744 C5'        26.7830   -7.6290    8.4450 C.3      24   G    0.0558
    745 C4'        25.7610   -8.1790    7.4790 C.3      24   G    0.1065
    746 O4'        25.5420   -9.6080    7.6760 O.3      24   G   -0.3548
    747 C3'        24.3840   -7.5890    7.6590 C.3      24   G    0.2022
    748 O3'        24.3180   -6.3100    7.0460 O.3      24   G   -0.5246
    749 C2'        23.5210   -8.6240    6.9590 C.3      24   G    0.0670
    750 O2'        23.6360   -8.4880    5.5590 O.3      24   G   -0.6139
    751 C1'        24.1880   -9.9260    7.4000 C.3      24   G    0.0191
    752 N9         23.5990  -10.4730    8.6150 N.ar     24   G    0.0492
    753 C8         23.9710  -10.1840    9.9120 C.ar     24   G    0.1374
    754 N7         23.2630  -10.8250   10.8050 N.ar     24   G   -0.5709
    755 C5         22.3720  -11.5840   10.0560 C.ar     24   G    0.1744
    756 C6         21.3620  -12.4890   10.4750 C.2      24   G    0.4770
    757 O6         21.0310  -12.7880   11.6300 O.2      24   G   -0.5597
    758 N1         20.7030  -13.0640    9.3900 N.am     24   G   -0.4787
    759 C2         20.9740  -12.7860    8.0700 C.2      24   G    0.7657
    760 N2         20.2240  -13.4270    7.1650 N.pl3    24   G   -0.9672
    761 N3         21.9110  -11.9340    7.6650 N.2      24   G   -0.6323
    762 C4         22.5670  -11.3780    8.7020 C.ar     24   G    0.1222
    763 H5'        27.6107   -8.3327    8.5339 H        24   G    0.0679
    764 H5''       27.1572   -6.6757    8.0719 H        24   G    0.0679
    765 H4'        26.0984   -8.0030    6.4576 H        24   G    0.1174
    766 H3'        24.1273   -7.5239    8.7163 H        24   G    0.0615
    767 H2'        22.4825   -8.5715    7.2858 H        24   G    0.0972
    768 HO2'       23.2172   -7.6701    5.2810 H        24   G    0.4186
    769 H1'        24.1349  -10.6615    6.5973 H        24   G    0.2006
    770 H8         24.7662   -9.4980   10.1639 H        24   G    0.1640
    771 H1         19.9731  -13.7337    9.5870 H        24   G    0.3424
    772 H21        20.3727  -13.2641    6.1794 H        24   G    0.4364
    773 H22        19.5095  -14.0734    7.4679 H        24   G    0.4364
    774 P          22.9330   -5.4960    7.0800 P.3      25   U    1.1662
    775 OP1        22.9170   -4.5040    5.9600 O.co2    25   U   -0.7760
    776 OP2        22.6850   -5.0440    8.4920 O.co2    25   U   -0.7760
    777 O5'        21.8980   -6.6360    6.7070 O.3      25   U   -0.4989
    778 C5'        20.5460   -6.5420    7.0750 C.3      25   U    0.0558
    779 C4'        19.7280   -7.4260    6.1800 C.3      25   U    0.1065
    780 O4'        20.0360   -8.8260    6.4190 O.3      25   U   -0.3548
    781 C3'        18.2530   -7.3220    6.4510 C.3      25   U    0.2022
    782 O3'        17.7790   -6.1700    5.7720 O.3      25   U   -0.5246
    783 C2'        17.7480   -8.6420    5.8930 C.3      25   U    0.0670
    784 O2'        17.7460   -8.6540    4.4830 O.3      25   U   -0.6139
    785 C1'        18.8430   -9.5860    6.3770 C.3      25   U    0.0674
    786 N1         18.5750  -10.0820    7.7290 N.am     25   U    0.0418
    787 C2         17.5750  -11.0160    7.8660 C.2      25   U    0.4687
    788 O2         16.9410  -11.4490    6.9090 O.2      25   U   -0.5477
    789 N3         17.3390  -11.4290    9.1560 N.am     25   U   -0.3549
    790 C4         17.9970  -11.0160   10.2930 C.2      25   U    0.5952
    791 O4         17.6240  -11.4400   11.3900 O.2      25   U   -0.5761
    792 C5         19.0370  -10.0570   10.0680 C.2      25   U   -0.3635
    793 C6         19.2830   -9.6320    8.8230 C.2      25   U   -0.1126
    794 H5'        20.4271   -6.8617    8.1103 H        25   U    0.0679
    795 H5''       20.2114   -5.5098    6.9719 H        25   U    0.0679
    796 H4'        19.9281   -7.1788    5.1374 H        25   U    0.1174
    797 H3'        18.0577   -7.2513    7.5210 H        25   U    0.0615
    798 H2'        16.7734   -8.9084    6.3019 H        25   U    0.0972
    799 HO2'       17.0616   -8.0642    4.1585 H        25   U    0.4186
    800 H1'        18.9530  -10.4209    5.6849 H        25   U    0.1824
    801 H3         16.6032  -12.1091    9.2835 H        25   U    0.3154
    802 H5         19.6181   -9.6799   10.8966 H        25   U    0.1811
    803 H6         20.0683   -8.9068    8.6690 H        25   U    0.2188
    804 P          16.4750   -5.4310    6.3150 P.3      26   C    1.1662
    805 OP1        16.0570   -4.4320    5.2960 O.co2    26   C   -0.7760
    806 OP2        16.6720   -5.0000    7.7290 O.co2    26   C   -0.7760
    807 O5'        15.4260   -6.6190    6.3120 O.3      26   C   -0.4989
    808 C5'        14.3900   -6.6210    7.2520 C.3      26   C    0.0558
    809 C4'        13.6490   -7.9260    7.2430 C.3      26   C    0.1065
    810 O4'        14.4980   -9.0150    7.7010 O.3      26   C   -0.3548
    811 C3'        12.5840   -7.8120    8.2960 C.3      26   C    0.2022
    812 O3'        11.4620   -7.1900    7.7160 O.3      26   C   -0.5246
    813 C2'        12.4140   -9.2350    8.7670 C.3      26   C    0.0670
    814 O2'        11.6730   -9.9740    7.8230 O.3      26   C   -0.6139
    815 C1'        13.8760   -9.6900    8.7860 C.3      26   C    0.0066
    816 N1         14.6170   -9.3460   10.0300 N.am     26   C   -0.0484
    817 C2         14.2360   -9.9390   11.2360 C.2      26   C    0.7538
    818 O2         13.2800  -10.7190   11.2460 O.2      26   C   -0.6252
    819 N3         14.9160   -9.6500   12.3650 N.2      26   C   -0.7584
    820 C4         15.9490   -8.8040   12.3250 C.2      26   C    0.8185
    821 N4         16.6140   -8.5770   13.4700 N.pl3    26   C   -0.9530
    822 C5         16.3530   -8.1660   11.1110 C.2      26   C   -0.5215
    823 C6         15.6660   -8.4650   10.0000 C.2      26   C    0.0053
    824 H5'        13.6943   -5.8160    7.0153 H        26   C    0.0679
    825 H5''       14.8072   -6.4531    8.2449 H        26   C    0.0679
    826 H4'        13.2216   -8.1368    6.2627 H        26   C    0.1174
    827 H3'        12.9525   -7.1997    9.1190 H        26   C    0.0615
    828 H2'        11.9641   -9.2809    9.7587 H        26   C    0.0972
    829 HO2'       11.5706  -10.8771    8.1320 H        26   C    0.4186
    830 H1'        13.9240  -10.7662    8.6201 H        26   C    0.2029
    831 H41        16.3243   -9.0359   14.3218 H        26   C    0.4234
    832 H42        17.4037   -7.9474   13.4790 H        26   C    0.4234
    833 H5         17.1791   -7.4707   11.0902 H        26   C    0.1928
    834 H6         15.9441   -8.0033    9.0641 H        26   C    0.1958
    835 P          10.9280   -5.8160    8.3450 P.3      27   A    1.1662
    836 OP1         9.9870   -5.2370    7.3420 O.co2    27   A   -0.7760
    837 OP2        12.0890   -5.0080    8.8290 O.co2    27   A   -0.7760
    838 O5'        10.1060   -6.3350    9.6080 O.3      27   A   -0.4989
    839 C5'         9.1940   -7.4100    9.4660 C.3      27   A    0.0558
    840 C4'         8.9980   -8.1110   10.7820 C.3      27   A    0.1065
    841 O4'        10.2490   -8.6780   11.2440 O.3      27   A   -0.3548
    842 C3'         8.6020   -7.2200   11.9360 C.3      27   A    0.2022
    843 O3'         7.2220   -6.9090   11.8720 O.3      27   A   -0.5246
    844 C2'         8.9360   -8.0980   13.1310 C.3      27   A    0.0670
    845 O2'         7.9660   -9.0880   13.3060 O.3      27   A   -0.6139
    846 C1'        10.2130   -8.7870   12.6580 C.3      27   A    0.0394
    847 N9         11.4240   -8.1880   13.2080 N.ar     27   A   -0.0251
    848 C8         12.3930   -7.4900   12.5410 C.ar     27   A    0.2006
    849 N7         13.3590   -7.0560   13.3180 N.ar     27   A   -0.6073
    850 C5         12.9950   -7.5020   14.5800 C.ar     27   A    0.0515
    851 C6         13.6050   -7.3720   15.8410 C.ar     27   A    0.7009
    852 N6         14.7450   -6.6890   16.0570 N.pl3    27   A   -0.9019
    853 N1         12.9970   -7.9690   16.8920 N.ar     27   A   -0.7615
    854 C2         11.8530   -8.6290   16.6790 C.ar     27   A    0.5875
    855 N3         11.1790   -8.8010   15.5460 N.ar     27   A   -0.6997
    856 C4         11.8130   -8.2080   14.5240 C.ar     27   A    0.3053
    857 H5'         8.2356   -7.0238    9.1191 H        27   A    0.0679
    858 H5''        9.5831   -8.1185    8.7347 H        27   A    0.0679
    859 H4'         8.2600   -8.9046   10.6652 H        27   A    0.1174
    860 H3'         9.2027   -6.3105   11.9453 H        27   A    0.0615
    861 H2'         9.0957   -7.5145   14.0377 H        27   A    0.0972
    862 HO2'        7.1473   -8.6853   13.6045 H        27   A    0.4186
    863 H1'        10.1760   -9.8404   12.9356 H        27   A    0.2007
    864 H8         12.3663   -7.3125   11.4760 H        27   A    0.1553
    865 H61        15.2145   -6.2338   15.2873 H        27   A    0.4115
    866 H62        15.1307   -6.6319   16.9887 H        27   A    0.4115
    867 H2         11.4141   -9.0878   17.5526 H        27   A    0.0473
    868 P           6.7440   -5.4410   12.2760 P.3      28   C    1.1662
    869 OP1         5.3050   -5.3240   12.0120 O.co2    28   C   -0.7760
    870 OP2         7.6870   -4.4550   11.6960 O.co2    28   C   -0.7760
    871 O5'         6.9280   -5.4630   13.8450 O.3      28   C   -0.4989
    872 C5'         6.0900   -6.2700   14.6340 C.3      28   C    0.0558
    873 C4'         6.5380   -6.2080   16.0510 C.3      28   C    0.1065
    874 O4'         7.8780   -6.7430   16.1300 O.3      28   C   -0.3548
    875 C3'         6.7270   -4.7950   16.5540 C.3      28   C    0.2022
    876 O3'         5.4790   -4.2310   16.9280 O.3      28   C   -0.5246
    877 C2'         7.6380   -5.0340   17.7410 C.3      28   C    0.0670
    878 O2'         6.8910   -5.6480   18.7690 O.3      28   C   -0.6139
    879 C1'         8.6010   -6.0670   17.1560 C.3      28   C    0.0066
    880 N1          9.8320   -5.4870   16.5750 N.am     28   C   -0.0484
    881 C2         10.8560   -5.0950   17.4360 C.2      28   C    0.7538
    882 O2         10.7020   -5.2370   18.6470 O.2      28   C   -0.6252
    883 N3         11.9830   -4.5610   16.9300 N.2      28   C   -0.7584
    884 C4         12.1100   -4.3950   15.6160 C.2      28   C    0.8185
    885 N4         13.2350   -3.8270   15.1690 N.pl3    28   C   -0.9530
    886 C5         11.0890   -4.7920   14.7040 C.2      28   C   -0.5215
    887 C6          9.9740   -5.3300   15.2240 C.2      28   C    0.0053
    888 H5'         5.0639   -5.9097   14.5608 H        28   C    0.0679
    889 H5''        6.1399   -7.3002   14.2814 H        28   C    0.0679
    890 H4'         5.8590   -6.7633   16.6980 H        28   C    0.1174
    891 H3'         7.2217   -4.1789   15.8032 H        28   C    0.0615
    892 H2'         8.1440   -4.1272   18.0725 H        28   C    0.0972
    893 HO2'        7.4582   -5.8047   19.5275 H        28   C    0.4186
    894 H1'         8.8739   -6.7819   17.9322 H        28   C    0.2029
    895 H41        13.9522   -3.5449   15.8218 H        28   C    0.4234
    896 H42        13.3675   -3.6801   14.1786 H        28   C    0.4234
    897 H5         11.2074   -4.6652   13.6380 H        28   C    0.1928
    898 H6          9.1775   -5.6434   14.5654 H        28   C    0.1958
    899 P           5.2370   -2.6500   16.7460 P.3      29   A    1.1662
    900 OP1         3.8110   -2.4350   17.0880 O.co2    29   A   -0.7760
    901 OP2         5.7430   -2.2310   15.4110 O.co2    29   A   -0.7760
    902 O5'         6.1270   -2.0170   17.9090 O.3      29   A   -0.4989
    903 C5'         5.8610   -2.3790   19.2670 C.3      29   A    0.0558
    904 C4'         6.9010   -1.8050   20.1960 C.3      29   A    0.1065
    905 O4'         8.1830   -2.4400   19.9700 O.3      29   A   -0.3548
    906 C3'         7.2090   -0.3290   20.0310 C.3      29   A    0.2022
    907 O3'         6.2020    0.4560   20.6540 O.3      29   A   -0.5246
    908 C2'         8.5470   -0.2290   20.7510 C.3      29   A    0.0670
    909 O2'         8.4290   -0.2800   22.1570 O.3      29   A   -0.6139
    910 C1'         9.2210   -1.5170   20.2900 C.3      29   A    0.0394
    911 N9         10.0260   -1.2890   19.0970 N.ar     29   A   -0.0251
    912 C8          9.6990   -1.5590   17.7970 C.ar     29   A    0.2006
    913 N7         10.6440   -1.2590   16.9400 N.ar     29   A   -0.6073
    914 C5         11.6630   -0.7570   17.7330 C.ar     29   A    0.0515
    915 C6         12.9450   -0.2850   17.4270 C.ar     29   A    0.7009
    916 N6         13.4440   -0.2530   16.1840 N.pl3    29   A   -0.9019
    917 N1         13.7120    0.1500   18.4440 N.ar     29   A   -0.7615
    918 C2         13.2160    0.1100   19.6870 C.ar     29   A    0.5875
    919 N3         12.0240   -0.3220   20.1030 N.ar     29   A   -0.6997
    920 C4         11.2900   -0.7530   19.0620 C.ar     29   A    0.3053
    921 H5'         4.8804   -1.9974   19.5514 H        29   A    0.0679
    922 H5''        5.8621   -3.4654   19.3552 H        29   A    0.0679
    923 H4'         6.5935   -1.9880   21.2256 H        29   A    0.1174
    924 H3'         7.3120   -0.0672   18.9779 H        29   A    0.0615
    925 H2'         9.1066    0.6497   20.4303 H        29   A    0.0972
    926 HO2'        8.0064    0.5222   22.4724 H        29   A    0.4186
    927 H1'         9.8440   -1.9187   21.0892 H        29   A    0.2007
    928 H8          8.7491   -1.9808   17.5034 H        29   A    0.1553
    929 H61        12.8860   -0.5778   15.4073 H        29   A    0.4115
    930 H62        14.3782    0.0959   16.0237 H        29   A    0.4115
    931 H2         13.8725    0.4790   20.4612 H        29   A    0.0473
    932 P           5.8130    1.9070   20.0570 P.3      30   C    1.1662
    933 OP1         4.5880    2.3030   20.7940 O.co2    30   C   -0.7760
    934 OP2         5.8250    1.8960   18.5680 O.co2    30   C   -0.7760
    935 O5'         6.9680    2.8660   20.5890 O.3      30   C   -0.4989
    936 C5'         7.1920    3.0000   21.9810 C.3      30   C    0.0558
    937 C4'         8.5170    3.6540   22.2240 C.3      30   C    0.1065
    938 O4'         9.5820    2.7800   21.7780 O.3      30   C   -0.3548
    939 C3'         8.7400    4.9150   21.4170 C.3      30   C    0.2022
    940 O3'         8.1430    6.0350   22.0570 O.3      30   C   -0.5246
    941 C2'        10.2550    5.0200   21.4400 C.3      30   C    0.0670
    942 O2'        10.7160    5.4830   22.6910 O.3      30   C   -0.6139
    943 C1'        10.6480    3.5550   21.2680 C.3      30   C    0.0066
    944 N1         10.8160    3.2300   19.8530 N.am     30   C   -0.0484
    945 C2         12.0720    3.3790   19.3000 C.2      30   C    0.7538
    946 O2         12.9970    3.7940   20.0250 O.2      30   C   -0.6252
    947 N3         12.2610    3.0800   17.9980 N.2      30   C   -0.7584
    948 C4         11.2410    2.6490   17.2580 C.2      30   C    0.8185
    949 N4         11.4820    2.3700   15.9740 N.pl3    30   C   -0.9530
    950 C5          9.9360    2.4910   17.7980 C.2      30   C   -0.5215
    951 C6          9.7700    2.7940   19.0930 C.2      30   C    0.0053
    952 H5'         6.4020    3.6117   22.4167 H        30   C    0.0679
    953 H5''        7.1843    2.0140   22.4455 H        30   C    0.0679
    954 H4'         8.6346    3.8686   23.2862 H        30   C    0.1174
    955 H3'         8.3693    4.8006   20.3984 H        30   C    0.0615
    956 H2'        10.6280    5.6352   20.6212 H        30   C    0.0972
    957 HO2'       11.4814    6.0476   22.5607 H        30   C    0.4186
    958 H1'        11.5659    3.3428   21.8163 H        30   C    0.2029
    959 H41        12.4120    2.4867   15.5978 H        30   C    0.4234
    960 H42        10.7342    2.0423   15.3794 H        30   C    0.4234
    961 H5          9.1136    2.1419   17.1912 H        30   C    0.1928
    962 H6          8.7931    2.6915   19.5419 H        30   C    0.1958
    963 P           7.9100    7.4070   21.2490 P.3      31   C    1.1662
    964 OP1         7.3010    8.3650   22.2060 O.co2    31   C   -0.7760
    965 OP2         7.2240    7.0990   19.9680 O.co2    31   C   -0.7760
    966 O5'         9.3720    7.8960   20.8540 O.3      31   C   -0.4989
    967 C5'        10.2520    8.4320   21.8280 C.3      31   C    0.0558
    968 C4'        11.5600    8.8170   21.1810 C.3      31   C    0.1065
    969 O4'        12.1210    7.6500   20.5170 O.3      31   C   -0.3548
    970 C3'        11.4580    9.8100   20.0430 C.3      31   C    0.2022
    971 O3'        11.2700   11.1350   20.5360 O.3      31   C   -0.5246
    972 C2'        12.7890    9.5760   19.3270 C.3      31   C    0.0670
    973 O2'        13.8960   10.0800   20.0380 O.3      31   C   -0.6139
    974 C1'        12.9040    8.0560   19.4100 C.3      31   C    0.0066
    975 N1         12.4400    7.3400   18.2180 N.am     31   C   -0.0484
    976 C2         13.3210    7.1730   17.1470 C.2      31   C    0.7538
    977 O2         14.5060    7.6450   17.2350 O.2      31   C   -0.6252
    978 N3         12.9190    6.4800   16.0590 N.2      31   C   -0.7584
    979 C4         11.6870    5.9790   16.0040 C.2      31   C    0.8185
    980 N4         11.2820    5.3450   14.9350 N.pl3    31   C   -0.9530
    981 C5         10.7580    6.1480   17.0710 C.2      31   C   -0.5215
    982 C6         11.1730    6.8320   18.1520 C.2      31   C    0.0053
    983 H5'        10.4365    7.6840   22.5990 H        31   C    0.0679
    984 H5''        9.7981    9.3139   22.2801 H        31   C    0.0679
    985 H4'        12.2545    9.1857   21.9358 H        31   C    0.1174
    986 H3'        10.6313    9.5380   19.3867 H        31   C    0.0615
    987 H2'        12.7679    9.9300   18.2963 H        31   C    0.0972
    988 HO2'       13.8780   11.0397   20.0208 H        31   C    0.4186
    989 H1'        13.9444    7.7909   19.5979 H        31   C    0.2029
    990 H41        11.9095    5.2207   14.1534 H        31   C    0.4234
    991 H42        10.3415    4.9795   14.8906 H        31   C    0.4234
    992 H5          9.7587    5.7423   17.0139 H        31   C    0.1928
    993 H6         10.4955    6.9819   18.9796 H        31   C    0.1958
    994 P          10.5880   12.2470   19.5930 P.3      32   G    1.1662
    995 OP1        10.4320   13.4730   20.3980 O.co2    32   G   -0.7760
    996 OP2         9.4140   11.7130   18.8680 O.co2    32   G   -0.7760
    997 O5'        11.7430   12.4780   18.5240 O.3      32   G   -0.4989
    998 C5'        11.4560   12.7200   17.1580 C.3      32   G    0.0558
    999 C4'        12.7330   12.6030   16.3600 C.3      32   G    0.1065
   1000 O4'        13.1950   11.2230   16.3920 O.3      32   G   -0.3548
   1001 C3'        12.6190   12.9140   14.8860 C.3      32   G    0.2022
   1002 O3'        12.7240   14.3060   14.6760 O.3      32   G   -0.5246
   1003 C2'        13.8110   12.1690   14.3100 C.3      32   G    0.0670
   1004 O2'        15.0310   12.8540   14.4890 O.3      32   G   -0.6139
   1005 C1'        13.7900   10.8900   15.1480 C.3      32   G    0.0191
   1006 N9         12.9360    9.9080   14.5070 N.ar     32   G    0.0492
   1007 C8         11.7170    9.4570   14.9390 C.ar     32   G    0.1374
   1008 N7         11.1660    8.6040   14.1120 N.ar     32   G   -0.5709
   1009 C5         12.0890    8.4860   13.0800 C.ar     32   G    0.1744
   1010 C6         12.0430    7.7240   11.9000 C.2      32   G    0.4770
   1011 O6         11.1730    6.9610   11.5240 O.2      32   G   -0.5597
   1012 N1         13.1770    7.9130   11.1210 N.am     32   G   -0.4787
   1013 C2         14.2330    8.7280   11.4510 C.2      32   G    0.7657
   1014 N2         15.2370    8.7920   10.5550 N.pl3    32   G   -0.9672
   1015 N3         14.2960    9.4310   12.5640 N.2      32   G   -0.6323
   1016 C4         13.1930    9.2730   13.3190 C.ar     32   G    0.1222
   1017 H5'        11.0438   13.7225   17.0432 H        32   G    0.0679
   1018 H5''       10.7340   11.9855   16.8011 H        32   G    0.0679
   1019 H4'        13.4932   13.2457   16.8041 H        32   G    0.1174
   1020 H3'        11.6848   12.5282   14.4780 H        32   G    0.0615
   1021 H2'        13.6492   11.9409   13.2565 H        32   G    0.0972
   1022 HO2'       15.7578   12.2894   14.2160 H        32   G    0.4186
   1023 H1'        14.7975   10.4988   15.2891 H        32   G    0.2006
   1024 H8         11.2583    9.7718   15.8647 H        32   G    0.1640
   1025 H1         13.2296    7.4132   10.2449 H        32   G    0.3424
   1026 H21        15.1864    8.2556    9.7007 H        32   G    0.4364
   1027 H22        16.0403    9.3763   10.7376 H        32   G    0.4364
   1028 P          11.8130   14.9990   13.5580 P.3      33   G    1.1662
   1029 OP1        11.9620   16.4750   13.7570 O.co2    33   G   -0.7760
   1030 OP2        10.4570   14.3790   13.6030 O.co2    33   G   -0.7760
   1031 O5'        12.5220   14.5930   12.1860 O.3      33   G   -0.4989
   1032 C5'        13.9060   14.8520   12.0040 C.3      33   G    0.0558
   1033 C4'        14.4520   14.0760   10.8230 C.3      33   G    0.1065
   1034 O4'        14.3980   12.6450   11.0650 O.3      33   G   -0.3548
   1035 C3'        13.7230   14.2460    9.5040 C.3      33   G    0.2022
   1036 O3'        14.1500   15.4400    8.8840 O.3      33   G   -0.5246
   1037 C2'        14.2300   13.0390    8.7400 C.3      33   G    0.0670
   1038 O2'        15.5570   13.2160    8.3020 O.3      33   G   -0.6139
   1039 C1'        14.2030   11.9730    9.8350 C.3      33   G    0.0191
   1040 N9         12.9110   11.3080    9.9010 N.ar     33   G    0.0492
   1041 C8         11.9710   11.4520   10.8860 C.ar     33   G    0.1374
   1042 N7         10.9260   10.7070   10.7060 N.ar     33   G   -0.5709
   1043 C5         11.1820   10.0300    9.5210 C.ar     33   G    0.1744
   1044 C6         10.4130    9.0580    8.8390 C.2      33   G    0.4770
   1045 O6          9.3320    8.5520    9.1910 O.2      33   G   -0.5597
   1046 N1         11.0280    8.6530    7.6520 N.am     33   G   -0.4787
   1047 C2         12.2560    9.1000    7.2050 C.2      33   G    0.7657
   1048 N2         12.6910    8.6070    6.0300 N.pl3    33   G   -0.9672
   1049 N3         13.0010    9.9760    7.8630 N.2      33   G   -0.6323
   1050 C4         12.3990   10.4020    9.0010 C.ar     33   G    0.1222
   1051 H5'        14.0489   15.9180   11.8269 H        33   G    0.0679
   1052 H5''       14.4469   14.5622   12.9049 H        33   G    0.0679
   1053 H4'        15.4942   14.3603   10.6780 H        33   G    0.1174
   1054 H3'        12.6409   14.2199    9.6322 H        33   G    0.0615
   1055 H2'        13.5672   12.7810    7.9141 H        33   G    0.0972
   1056 HO2'       15.5808   13.8848    7.6137 H        33   G    0.4186
   1057 H1'        14.9963   11.2434    9.6725 H        33   G    0.2006
   1058 H8         12.0885   12.1187   11.7275 H        33   G    0.1640
   1059 H1         10.5377    7.9827    7.0772 H        33   G    0.3424
   1060 H21        12.1268    7.9409    5.5219 H        33   G    0.4364
   1061 H22        13.5815    8.9033    5.6567 H        33   G    0.4364
   1062 P          13.0800   16.3990    8.1930 P.3      34   U    1.1662
   1063 OP1        13.8910   17.5380    7.6890 O.co2    34   U   -0.7760
   1064 OP2        11.9350   16.6420    9.1010 O.co2    34   U   -0.7760
   1065 O5'        12.6090   15.5880    6.9190 O.3      34   U   -0.4989
   1066 C5'        13.5090   15.4420    5.8470 C.3      34   U    0.0558
   1067 C4'        13.0430   14.3550    4.9350 C.3      34   U    0.1065
   1068 O4'        12.8910   13.1310    5.6930 O.3      34   U   -0.3548
   1069 C3'        11.6570   14.5380    4.3740 C.3      34   U    0.2022
   1070 O3'        11.6530   15.4600    3.3080 O.3      34   U   -0.5246
   1071 C2'        11.3760   13.1280    3.8950 C.3      34   U    0.0670
   1072 O2'        12.1370   12.7880    2.7610 O.3      34   U   -0.6139
   1073 C1'        11.8940   12.3270    5.0840 C.3      34   U    0.0674
   1074 N1         10.8190   12.0950    6.0530 N.am     34   U    0.0418
   1075 C2          9.9110   11.1270    5.7560 C.2      34   U    0.4687
   1076 O2          9.9650   10.4790    4.7240 O.2      34   U   -0.5477
   1077 N3          8.9310   10.9400    6.6960 N.am     34   U   -0.3549
   1078 C4          8.7790   11.6270    7.8730 C.2      34   U    0.5952
   1079 O4          7.8820   11.3160    8.6480 O.2      34   U   -0.5761
   1080 C5          9.7630   12.6310    8.1020 C.2      34   U   -0.3635
   1081 C6         10.7300   12.8200    7.2010 C.2      34   U   -0.1126
   1082 H5'        13.5655   16.3789    5.2928 H        34   U    0.0679
   1083 H5''       14.4962   15.1908    6.2348 H        34   U    0.0679
   1084 H4'        13.7595   14.2098    4.1265 H        34   U    0.1174
   1085 H3'        10.9545   14.8353    5.1526 H        34   U    0.0615
   1086 H2'        10.3112   12.9627    3.7305 H        34   U    0.0972
   1087 HO2'       12.0482   11.8482    2.5863 H        34   U    0.4186
   1088 H1'        12.3183   11.3800    4.7506 H        34   U    0.1824
   1089 H3          8.2493   10.2207    6.5013 H        34   U    0.3154
   1090 H5          9.7272   13.2344    8.9970 H        34   U    0.1811
   1091 H6         11.4729   13.5804    7.3914 H        34   U    0.2188
   1092 P          10.2980   16.2300    2.9510 P.3      35   G    1.1662
   1093 OP1        10.6240   17.2860    1.9770 O.co2    35   G   -0.7760
   1094 OP2         9.6420   16.5880    4.2270 O.co2    35   G   -0.7760
   1095 O5'         9.4630   15.1140    2.1990 O.3      35   G   -0.4989
   1096 C5'        10.0270   14.4240    1.0940 C.3      35   G    0.0558
   1097 C4'         9.0690   13.3590    0.6030 C.3      35   G    0.1065
   1098 O4'         9.0030   12.2640    1.5440 O.3      35   G   -0.3548
   1099 C3'         7.6260   13.7960    0.4940 C.3      35   G    0.2022
   1100 O3'         7.4460   14.5130   -0.7110 O.3      35   G   -0.5246
   1101 C2'         6.9150   12.4610    0.4560 C.3      35   G    0.0670
   1102 O2'         7.0630   11.8840   -0.8150 O.3      35   G   -0.6139
   1103 C1'         7.7210   11.6660    1.4830 C.3      35   G    0.0191
   1104 N9          7.1510   11.7360    2.8200 N.ar     35   G    0.0492
   1105 C8          7.5190   12.5940    3.8210 C.ar     35   G    0.1374
   1106 N7          6.8440   12.4130    4.9240 N.ar     35   G   -0.5709
   1107 C5          5.9670   11.3860    4.6260 C.ar     35   G    0.1744
   1108 C6          5.0160   10.7470    5.4310 C.2      35   G    0.4770
   1109 O6          4.7320   10.9780    6.6190 O.2      35   G   -0.5597
   1110 N1          4.3640    9.7250    4.7470 N.am     35   G   -0.4787
   1111 C2          4.6160    9.3670    3.4520 C.2      35   G    0.7657
   1112 N2          3.9000    8.3480    2.9760 N.pl3    35   G   -0.9672
   1113 N3          5.5090    9.9630    2.6790 N.2      35   G   -0.6323
   1114 C4          6.1440   10.9550    3.3290 C.ar     35   G    0.1222
   1115 H5'        10.2228   15.1319    0.2886 H        35   G    0.0679
   1116 H5''       10.9627   13.9557    1.3994 H        35   G    0.0679
   1117 H4'         9.4078   12.9855   -0.3634 H        35   G    0.1174
   1118 H3'         7.3214   14.3858    1.3585 H        35   G    0.0615
   1119 H2'         5.8671   12.5502    0.7424 H        35   G    0.0972
   1120 HO2'        6.6113   11.0372   -0.8371 H        35   G    0.4186
   1121 H1'         7.8077   10.6264    1.1671 H        35   G    0.2006
   1122 H8          8.2885   13.3436    3.7099 H        35   G    0.1640
   1123 H1          3.6519    9.2097    5.2444 H        35   G    0.3424
   1124 H21         3.2187    7.8909    3.5650 H        35   G    0.4364
   1125 H22         4.0389    8.0332    2.0264 H        35   G    0.4364
   1126 P           6.5950   15.8740   -0.7000 P.3      36   A    1.1662
   1127 OP1         7.2430   16.8640   -1.5630 O.co2    36   A   -0.7760
   1128 OP2         6.2240   16.2560    0.6840 O.co2    36   A   -0.7760
   1129 O5'         5.3070   15.4290   -1.5000 O.3      36   A   -0.4989
   1130 C5'         4.1680   15.0540   -0.8030 C.3      36   A    0.0558
   1131 C4'         2.9630   15.1200   -1.6920 C.3      36   A    0.1065
   1132 O4'         3.0490   14.2840   -2.8530 O.3      36   A   -0.3548
   1133 C3'         1.7680   14.6750   -0.8850 C.3      36   A    0.2022
   1134 O3'         0.9800   15.8620   -0.9110 O.3      36   A   -0.5246
   1135 C2'         1.1060   13.5600   -1.6900 C.3      36   A    0.0670
   1136 O2'        -0.2800   13.7400   -1.8130 O.3      36   A   -0.6139
   1137 C1'         1.7900   13.6990   -3.0500 C.3      36   A    0.0394
   1138 N9          1.9130   12.5460   -3.9290 N.ar     36   A   -0.0251
   1139 C8          2.3350   11.2650   -3.6790 C.ar     36   A    0.2006
   1140 N7          2.4210   10.5220   -4.7600 N.ar     36   A   -0.6073
   1141 C5          2.0070   11.3690   -5.7770 C.ar     36   A    0.0515
   1142 C6          1.8950   11.1920   -7.1460 C.ar     36   A    0.7009
   1143 N6          2.2080   10.0550   -7.7680 N.pl3    36   A   -0.9019
   1144 N1          1.4410   12.2240   -7.8770 N.ar     36   A   -0.7615
   1145 C2          1.1160   13.3590   -7.2500 C.ar     36   A    0.5875
   1146 N3          1.1830   13.6490   -5.9600 N.ar     36   A   -0.6997
   1147 C4          1.6520   12.6010   -5.2730 C.ar     36   A    0.3053
   1148 H5'         4.2898   14.0337   -0.4393 H        36   A    0.0679
   1149 H5''        4.0274   15.7244    0.0449 H        36   A    0.0679
   1150 H4'         2.8124   16.1520   -2.0088 H        36   A    0.1174
   1151 H3'         2.0327   14.3659    0.1262 H        36   A    0.0615
   1152 H2'         1.3270   12.5880   -1.2491 H        36   A    0.0972
   1153 HO2'       -0.7343   13.1494   -1.2077 H        36   A    0.4186
   1154 H1'         1.2045   14.4333   -3.6033 H        36   A    0.2007
   1155 H8          2.5734   10.9021   -2.6901 H        36   A    0.1553
   1156 H61         2.5490    9.2663   -7.2372 H        36   A    0.4115
   1157 H62         2.1041    9.9824   -8.7700 H        36   A    0.4115
   1158 H2          0.7469   14.1507   -7.8851 H        36   A    0.0473
   1159 P           0.1050   16.2830    0.3410 P.3      37   A    1.1662
   1160 OP1        -0.0200   17.7490    0.1750 O.co2    37   A   -0.7760
   1161 OP2         0.6840   15.7380    1.5900 O.co2    37   A   -0.7760
   1162 O5'        -1.3070   15.6320    0.0210 O.3      37   A   -0.4989
   1163 C5'        -2.0910   16.1320   -1.0660 C.3      37   A    0.0558
   1164 C4'        -3.0050   15.0530   -1.5760 C.3      37   A    0.1065
   1165 O4'        -2.2360   14.0710   -2.2540 O.3      37   A   -0.3548
   1166 C3'        -3.8010   14.2960   -0.5110 C.3      37   A    0.2022
   1167 O3'        -5.1370   14.8050   -0.5870 O.3      37   A   -0.5246
   1168 C2'        -3.8190   12.8350   -0.9800 C.3      37   A    0.0670
   1169 O2'        -5.0910   12.3440   -1.3030 O.3      37   A   -0.6139
   1170 C1'        -2.9730   12.8800   -2.2540 C.3      37   A    0.0394
   1171 N9         -2.1010   11.7540   -2.5570 N.ar     37   A   -0.0251
   1172 C8         -1.5070   10.8630   -1.7220 C.ar     37   A    0.2006
   1173 N7         -0.8740    9.8960   -2.3540 N.ar     37   A   -0.6073
   1174 C5         -1.0520   10.2000   -3.6950 C.ar     37   A    0.0515
   1175 C6         -0.6570    9.5520   -4.8640 C.ar     37   A    0.7009
   1176 N6         -0.0090    8.3870   -4.8730 N.pl3    37   A   -0.9019
   1177 N1         -0.9650   10.1320   -6.0420 N.ar     37   A   -0.7615
   1178 C2         -1.6490   11.2830   -6.0250 C.ar     37   A    0.5875
   1179 N3         -2.1060   11.9710   -4.9850 N.ar     37   A   -0.6997
   1180 C4         -1.7710   11.3610   -3.8340 C.ar     37   A    0.3053
   1181 H5'        -2.6867   16.9778   -0.7228 H        37   A    0.0679
   1182 H5''       -1.4303   16.4568   -1.8698 H        37   A    0.0679
   1183 H4'        -3.7053   15.4963   -2.2840 H        37   A    0.1174
   1184 H3'        -3.3712   14.4066    0.4845 H        37   A    0.0615
   1185 H2'        -3.3457   12.1945   -0.2358 H        37   A    0.0972
   1186 HO2'       -5.0090   11.4613   -1.6714 H        37   A    0.4186
   1187 H1'        -3.6750   12.9550   -3.0845 H        37   A    0.2007
   1188 H8         -1.5494   10.9396   -0.6456 H        37   A    0.1553
   1189 H61         0.2253    7.9327   -4.0019 H        37   A    0.4115
   1190 H62         0.2476    7.9587   -5.7509 H        37   A    0.4115
   1191 H2         -1.8586   11.7124   -6.9935 H        37   A    0.0473
   1192 P          -5.9710   15.1640    0.7430 P.3      38   G    1.1662
   1193 OP1        -7.2840   15.6220    0.1940 O.co2    38   G   -0.7760
   1194 OP2        -5.2010   16.0370    1.6560 O.co2    38   G   -0.7760
   1195 O5'        -6.1310   13.7810    1.4990 O.3      38   G   -0.4989
   1196 C5'        -7.1340   12.8560    1.1640 C.3      38   G    0.0558
   1197 C4'        -7.3210   11.9330    2.3210 C.3      38   G    0.1065
   1198 O4'        -6.0610   11.2710    2.5730 O.3      38   G   -0.3548
   1199 C3'        -7.5660   12.6670    3.6260 C.3      38   G    0.2022
   1200 O3'        -8.9450   12.9530    3.7520 O.3      38   G   -0.5246
   1201 C2'        -7.1560   11.6230    4.6410 C.3      38   G    0.0670
   1202 O2'        -8.1290   10.6140    4.7080 O.3      38   G   -0.6139
   1203 C1'        -5.9190   11.0420    3.9740 C.3      38   G    0.0191
   1204 N9         -4.7210   11.7150    4.4630 N.ar     38   G    0.0492
   1205 C8         -3.8470   12.5240    3.7730 C.ar     38   G    0.1374
   1206 N7         -2.9040   13.0150    4.5300 N.ar     38   G   -0.5709
   1207 C5         -3.1700   12.4900    5.7900 C.ar     38   G    0.1744
   1208 C6         -2.4960   12.6700    7.0310 C.2      38   G    0.4770
   1209 O6         -1.4980   13.3360    7.2790 O.2      38   G   -0.5597
   1210 N1         -3.1040   11.9600    8.0430 N.am     38   G   -0.4787
   1211 C2         -4.2120   11.1620    7.8990 C.2      38   G    0.7657
   1212 N2         -4.6440   10.5550    9.0210 N.pl3    38   G   -0.9672
   1213 N3         -4.8450   10.9780    6.7560 N.2      38   G   -0.6323
   1214 C4         -4.2760   11.6720    5.7550 C.ar     38   G    0.1222
   1215 H5'        -6.8330   12.2880    0.2837 H        38   G    0.0679
   1216 H5''       -8.0662   13.3828    0.9601 H        38   G    0.0679
   1217 H4'        -8.1120   11.2097    2.1226 H        38   G    0.1174
   1218 H3'        -6.9573   13.5678    3.7039 H        38   G    0.0615
   1219 H2'        -6.9376   12.0555    5.6174 H        38   G    0.0972
   1220 HO2'       -7.7908    9.8773    5.2223 H        38   G    0.4186
   1221 H1'        -5.8545    9.9723    4.1732 H        38   G    0.2006
   1222 H8         -3.9325   12.7307    2.7164 H        38   G    0.1640
   1223 H1         -2.7017   12.0324    8.9666 H        38   G    0.3424
   1224 H21        -4.1567   10.7006    9.8936 H        38   G    0.4364
   1225 H22        -5.4553    9.9542    8.9898 H        38   G    0.4364
   1226 P          -9.4070   14.2580    4.5320 P.3      39   U    1.1662
   1227 OP1       -10.8000   14.5520    4.0660 O.co2    39   U   -0.7760
   1228 OP2        -8.3670   15.3030    4.4060 O.co2    39   U   -0.7760
   1229 O5'        -9.4010   13.7820    6.0500 O.3      39   U   -0.4989
   1230 C5'       -10.0290   12.5640    6.4090 C.3      39   U    0.0558
   1231 C4'        -9.6990   12.1940    7.8360 C.3      39   U    0.1065
   1232 O4'        -8.3030   11.8420    7.9440 O.3      39   U   -0.3548
   1233 C3'        -9.8910   13.2680    8.8880 C.3      39   U    0.2022
   1234 O3'       -11.2730   13.3630    9.2350 O.3      39   U   -0.5246
   1235 C2'        -9.0160   12.7350   10.0240 C.3      39   U    0.0670
   1236 O2'        -9.6060   11.6950   10.7740 O.3      39   U   -0.6139
   1237 C1'        -7.8400   12.1430    9.2460 C.3      39   U    0.0674
   1238 N1         -6.7020   13.0610    9.1270 N.am     39   U    0.0418
   1239 C2         -5.9670   13.2780   10.2500 C.2      39   U    0.4687
   1240 O2         -6.2420   12.7660   11.3160 O.2      39   U   -0.5477
   1241 N3         -4.9080   14.1200   10.0930 N.am     39   U   -0.3549
   1242 C4         -4.5290   14.7640    8.9370 C.2      39   U    0.5952
   1243 O4         -3.5660   15.5220    8.9620 O.2      39   U   -0.5761
   1244 C5         -5.3560   14.4970    7.8090 C.2      39   U   -0.3635
   1245 C6         -6.3900   13.6730    7.9390 C.2      39   U   -0.1126
   1246 H5'       -11.1087   12.6750    6.3087 H        39   U    0.0679
   1247 H5''       -9.6854   11.7722    5.7434 H        39   U    0.0679
   1248 H4'       -10.2967   11.3263    8.1150 H        39   U    0.1174
   1249 H3'        -9.5167   14.2276    8.5314 H        39   U    0.0615
   1250 H2'        -8.6851   13.5450   10.6740 H        39   U    0.0972
   1251 HO2'      -10.3492   12.0416   11.2731 H        39   U    0.4186
   1252 H1'        -7.5122   11.2245    9.7328 H        39   U    0.1824
   1253 H3         -4.3408   14.2898   10.9113 H        39   U    0.3154
   1254 H5         -5.1446   14.9601    6.8565 H        39   U    0.1811
   1255 H6         -7.0092   13.4772    7.0761 H        39   U    0.2188
   1256 P         -11.8860   14.7630    9.7270 P.3      40   C    1.1662
   1257 OP1       -13.3650   14.6210    9.7640 O.co2    40   C   -0.7760
   1258 OP2       -11.2940   15.8660    8.9350 O.co2    40   C   -0.7760
   1259 O5'       -11.3290   14.9030   11.2100 O.3      40   C   -0.4989
   1260 C5'       -11.7610   14.0410   12.2390 C.3      40   C    0.0558
   1261 C4'       -10.9830   14.3280   13.5010 C.3      40   C    0.1065
   1262 O4'        -9.5840   14.0110   13.2570 O.3      40   C   -0.3548
   1263 C3'       -10.9050   15.7900   13.9280 C.3      40   C    0.2022
   1264 O3'       -12.0630   16.2360   14.6250 O.3      40   C   -0.5246
   1265 C2'        -9.6930   15.7510   14.8420 C.3      40   C    0.0670
   1266 O2'        -9.9760   15.0520   16.0400 O.3      40   C   -0.6139
   1267 C1'        -8.7560   14.8820   14.0150 C.3      40   C    0.0066
   1268 N1         -7.9400   15.6860   13.0990 N.am     40   C   -0.0484
   1269 C2         -6.7930   16.2630   13.5940 C.2      40   C    0.7538
   1270 O2         -6.5510   16.1410   14.8020 O.2      40   C   -0.6252
   1271 N3         -5.9820   16.9540   12.7670 N.2      40   C   -0.7584
   1272 C4         -6.3150   17.1040   11.4940 C.2      40   C    0.8185
   1273 N4         -5.4820   17.7780   10.7110 N.pl3    40   C   -0.9530
   1274 C5         -7.5140   16.5630   10.9630 C.2      40   C   -0.5215
   1275 C6         -8.2910   15.8590   11.7920 C.2      40   C    0.0053
   1276 H5'       -12.8233   14.2008   12.4237 H        40   C    0.0679
   1277 H5''      -11.5965   13.0062   11.9386 H        40   C    0.0679
   1278 H4'       -11.3654   13.7201   14.3210 H        40   C    0.1174
   1279 H3'       -10.7108   16.4281   13.0659 H        40   C    0.0615
   1280 H2'        -9.2820   16.7432   15.0281 H        40   C    0.0972
   1281 HO2'      -10.5671   15.5765   16.5851 H        40   C    0.4186
   1282 H1'        -8.1108   14.3007   14.6738 H        40   C    0.2029
   1283 H41        -4.6279   18.1593   11.0920 H        40   C    0.4234
   1284 H42        -5.7022   17.9096    9.7341 H        40   C    0.4234
   1285 H5         -7.7883   16.7140    9.9294 H        40   C    0.1928
   1286 H6         -9.2072   15.4221   11.4230 H        40   C    0.1958
   1287 P         -12.4370   17.7950   14.6140 P.3      41   G    1.1662
   1288 OP1       -13.6960   17.9450   15.3870 O.co2    41   G   -0.7760
   1289 OP2       -12.3720   18.2640   13.2030 O.co2    41   G   -0.7760
   1290 O5'       -11.2980   18.4590   15.4980 O.3      41   G   -0.4989
   1291 C5'       -11.1310   18.0480   16.8490 C.3      41   G    0.0558
   1292 C4'        -9.9070   18.6920   17.4600 C.3      41   G    0.1065
   1293 O4'        -8.7050   18.2300   16.7950 O.3      41   G   -0.3548
   1294 C3'        -9.8070   20.1960   17.3320 C.3      41   G    0.2022
   1295 O3'       -10.6430   20.8100   18.2930 O.3      41   G   -0.5246
   1296 C2'        -8.3220   20.4010   17.6050 C.3      41   G    0.0670
   1297 O2'        -7.9820   20.1360   18.9480 O.3      41   G   -0.6139
   1298 C1'        -7.7330   19.2600   16.7880 C.3      41   G    0.0191
   1299 N9         -7.4900   19.6150   15.3980 N.ar     41   G    0.0492
   1300 C8         -8.2630   19.2650   14.3210 C.ar     41   G    0.1374
   1301 N7         -7.7700   19.6720   13.1850 N.ar     41   G   -0.5709
   1302 C5         -6.6040   20.3360   13.5340 C.ar     41   G    0.1744
   1303 C6         -5.6370   20.9510   12.7260 C.2      41   G    0.4770
   1304 O6         -5.5960   21.0220   11.4930 O.2      41   G   -0.5597
   1305 N1         -4.6280   21.5210   13.4880 N.am     41   G   -0.4787
   1306 C2         -4.5580   21.4930   14.8580 C.2      41   G    0.7657
   1307 N2         -3.5230   22.1440   15.4190 N.pl3    41   G   -0.9672
   1308 N3         -5.4400   20.8860   15.6220 N.2      41   G   -0.6323
   1309 C4         -6.4320   20.3350   14.8980 C.ar     41   G    0.1222
   1310 H5'       -12.0113   18.3391   17.4221 H        41   G    0.0679
   1311 H5''      -11.0219   16.9640   16.8839 H        41   G    0.0679
   1312 H4'        -9.8541   18.4221   18.5147 H        41   G    0.1174
   1313 H3'       -10.0670   20.5202   16.3243 H        41   G    0.0615
   1314 H2'        -7.9688   21.3767   17.2715 H        41   G    0.0972
   1315 HO2'       -8.3321   20.8309   19.5103 H        41   G    0.4186
   1316 H1'        -6.8111   18.9068   17.2500 H        41   G    0.2006
   1317 H8         -9.1853   18.7094   14.4052 H        41   G    0.1640
   1318 H1         -3.8849   21.9949   12.9947 H        41   G    0.3424
   1319 H21        -2.8466   22.6151   14.8354 H        41   G    0.4364
   1320 H22        -3.4224   22.1616   16.4238 H        41   G    0.4364
   1321 P         -11.4030   22.1810   17.9310 P.3      42   C    1.1662
   1322 OP1       -12.2480   22.4230   19.1260 O.co2    42   C   -0.7760
   1323 OP2       -12.0480   22.0350   16.6000 O.co2    42   C   -0.7760
   1324 O5'       -10.2350   23.2750   17.8310 O.3      42   C   -0.4989
   1325 C5'        -9.2510   23.3880   18.8690 C.3      42   C    0.0558
   1326 C4'        -8.0650   24.2200   18.4130 C.3      42   C    0.1065
   1327 O4'        -7.2900   23.5250   17.4040 O.3      42   C   -0.3548
   1328 C3'        -8.3700   25.5680   17.7790 C.3      42   C    0.2022
   1329 O3'        -8.6150   26.5550   18.7940 O.3      42   C   -0.6541
   1330 C2'        -7.0850   25.8730   17.0150 C.3      42   C    0.0670
   1331 O2'        -6.0990   26.3970   17.8810 O.3      42   C   -0.6139
   1332 C1'        -6.6530   24.4760   16.5520 C.3      42   C    0.0066
   1333 N1         -7.0210   24.1710   15.1560 N.am     42   C   -0.0484
   1334 C2         -6.2160   24.6550   14.1110 C.2      42   C    0.7538
   1335 O2         -5.2190   25.3550   14.3830 O.2      42   C   -0.6252
   1336 N3         -6.5510   24.3560   12.8350 N.2      42   C   -0.7584
   1337 C4         -7.6440   23.6300   12.5850 C.2      42   C    0.8185
   1338 N4         -7.9440   23.3670   11.3150 N.pl3    42   C   -0.9530
   1339 C5         -8.4820   23.1400   13.6250 C.2      42   C   -0.5215
   1340 C6         -8.1360   23.4250   14.8800 C.2      42   C    0.0053
   1341 H5'        -9.7049   23.8628   19.7389 H        42   C    0.0679
   1342 H5''       -8.9049   22.3918   19.1445 H        42   C    0.0679
   1343 H4'        -7.4207   24.3906   19.2755 H        42   C    0.1174
   1344 H3'        -9.2177   25.4934   17.0979 H        42   C    0.0615
   1345 HO3'       -8.8059   27.3998   18.3800 H        42   C    0.4376
   1346 H2'        -7.2692   26.5361   16.1697 H        42   C    0.0972
   1347 HO2'       -6.3629   27.2719   18.1750 H        42   C    0.4186
   1348 H1'        -5.5725   24.3838   16.6625 H        42   C    0.2029
   1349 H41        -7.3516   23.7135   10.5740 H        42   C    0.4234
   1350 H42        -8.7640   22.8209   11.0924 H        42   C    0.4234
   1351 H5         -9.3655   22.5588   13.4057 H        42   C    0.1928
   1352 H6         -8.7456   23.0613   15.6939 H        42   C    0.1958
@<TRIPOS>BOND
     1    1    2 1
     2    2    3 1
     3    3    5 1
     4    3    4 1
     5    4    9 1
     6    5    7 1
     7    5    6 1
     8    7    9 1
     9    7    8 1
    10    9   10 1
    11   10   20 ar
    12   10   11 ar
    13   11   12 ar
    14   12   13 ar
    15   13   20 ar
    16   13   14 1
    17   14   15 2
    18   14   16 am
    19   16   17 1
    20   17   18 2
    21   17   19 2
    22   19   20 1
    23   33   34 1
    24   33   36 1
    25   33   35 1
    26   36   37 1
    27   37   38 1
    28   38   39 1
    29   38   40 1
    30   39   44 1
    31   40   41 1
    32   40   42 1
    33   42   43 1
    34   42   44 1
    35   44   45 1
    36   45   52 1
    37   45   46 am
    38   46   48 1
    39   46   47 2
    40   48   49 2
    41   49   50 2
    42   49   51 2
    43   51   52 2
    44   33    6 1
    45   64   67 1
    46   64   65 1
    47   64   66 1
    48   67   68 1
    49   68   69 1
    50   69   70 1
    51   69   71 1
    52   70   75 1
    53   71   73 1
    54   71   72 1
    55   73   74 1
    56   73   75 1
    57   75   76 1
    58   76   77 ar
    59   76   86 ar
    60   77   78 ar
    61   78   79 ar
    62   79   80 1
    63   79   86 ar
    64   80   81 2
    65   80   82 am
    66   82   83 1
    67   83   85 2
    68   83   84 2
    69   85   86 1
    70   41   64 1
    71   98   99 1
    72   98  100 1
    73   98  101 1
    74  101  102 1
    75  102  103 1
    76  103  105 1
    77  103  104 1
    78  104  109 1
    79  105  107 1
    80  105  106 1
    81  107  108 1
    82  107  109 1
    83  109  110 1
    84  110  111 am
    85  110  117 1
    86  111  112 2
    87  111  113 am
    88  113  114 am
    89  114  116 1
    90  114  115 2
    91  116  117 2
    92   72   98 1
    93  128  129 1
    94  128  131 1
    95  128  130 1
    96  131  132 1
    97  132  133 1
    98  133  134 1
    99  133  135 1
   100  134  139 1
   101  135  136 1
   102  135  137 1
   103  137  138 1
   104  137  139 1
   105  139  140 1
   106  140  147 1
   107  140  141 am
   108  141  143 1
   109  141  142 2
   110  143  144 2
   111  144  145 2
   112  144  146 2
   113  146  147 2
   114  106  128 1
   115  159  160 1
   116  159  161 1
   117  159  162 1
   118  162  163 1
   119  163  164 1
   120  164  166 1
   121  164  165 1
   122  165  170 1
   123  166  168 1
   124  166  167 1
   125  168  170 1
   126  168  169 1
   127  170  171 1
   128  171  180 ar
   129  171  172 ar
   130  172  173 ar
   131  173  174 ar
   132  174  180 ar
   133  174  175 ar
   134  175  177 ar
   135  175  176 1
   136  177  178 ar
   137  178  179 ar
   138  179  180 ar
   139  136  159 1
   140  192  193 1
   141  192  195 1
   142  192  194 1
   143  195  196 1
   144  196  197 1
   145  197  198 1
   146  197  199 1
   147  198  203 1
   148  199  200 1
   149  199  201 1
   150  201  202 1
   151  201  203 1
   152  203  204 1
   153  204  211 1
   154  204  205 am
   155  205  207 1
   156  205  206 2
   157  207  208 2
   158  208  209 2
   159  208  210 2
   160  210  211 2
   161  167  192 1
   162  223  224 1
   163  223  225 1
   164  223  226 1
   165  226  227 1
   166  227  228 1
   167  228  230 1
   168  228  229 1
   169  229  234 1
   170  230  232 1
   171  230  231 1
   172  232  234 1
   173  232  233 1
   174  234  235 1
   175  235  244 ar
   176  235  236 ar
   177  236  237 ar
   178  237  238 ar
   179  238  244 ar
   180  238  239 ar
   181  239  241 ar
   182  239  240 1
   183  241  242 ar
   184  242  243 ar
   185  243  244 ar
   186  200  223 1
   187  256  257 1
   188  256  259 1
   189  256  258 1
   190  259  260 1
   191  260  261 1
   192  261  262 1
   193  261  263 1
   194  262  267 1
   195  263  264 1
   196  263  265 1
   197  265  266 1
   198  265  267 1
   199  267  268 1
   200  268  275 1
   201  268  269 am
   202  269  271 1
   203  269  270 2
   204  271  272 2
   205  272  273 2
   206  272  274 2
   207  274  275 2
   208  231  256 1
   209  287  288 1
   210  287  290 1
   211  287  289 1
   212  290  291 1
   213  291  292 1
   214  292  293 1
   215  292  294 1
   216  293  298 1
   217  294  295 1
   218  294  296 1
   219  296  297 1
   220  296  298 1
   221  298  299 1
   222  299  306 1
   223  299  300 am
   224  300  302 1
   225  300  301 2
   226  302  303 2
   227  303  304 2
   228  303  305 2
   229  305  306 2
   230  264  287 1
   231  318  321 1
   232  318  319 1
   233  318  320 1
   234  321  322 1
   235  322  323 1
   236  323  324 1
   237  323  325 1
   238  324  329 1
   239  325  327 1
   240  325  326 1
   241  327  328 1
   242  327  329 1
   243  329  330 1
   244  330  331 ar
   245  330  340 ar
   246  331  332 ar
   247  332  333 ar
   248  333  334 1
   249  333  340 ar
   250  334  335 2
   251  334  336 am
   252  336  337 1
   253  337  339 2
   254  337  338 2
   255  339  340 1
   256  295  318 1
   257  352  355 1
   258  352  353 1
   259  352  354 1
   260  355  356 1
   261  356  357 1
   262  357  358 1
   263  357  359 1
   264  358  363 1
   265  359  361 1
   266  359  360 1
   267  361  362 1
   268  361  363 1
   269  363  364 1
   270  364  365 ar
   271  364  374 ar
   272  365  366 ar
   273  366  367 ar
   274  367  368 1
   275  367  374 ar
   276  368  369 2
   277  368  370 am
   278  370  371 1
   279  371  373 2
   280  371  372 2
   281  373  374 1
   282  326  352 1
   283  386  387 1
   284  386  388 1
   285  386  389 1
   286  389  390 1
   287  390  391 1
   288  391  393 1
   289  391  392 1
   290  392  397 1
   291  393  395 1
   292  393  394 1
   293  395  396 1
   294  395  397 1
   295  397  398 1
   296  398  399 am
   297  398  405 1
   298  399  400 2
   299  399  401 am
   300  401  402 am
   301  402  404 1
   302  402  403 2
   303  404  405 2
   304  360  386 1
   305  416  419 1
   306  416  417 1
   307  416  418 1
   308  419  420 1
   309  420  421 1
   310  421  422 1
   311  421  423 1
   312  422  427 1
   313  423  425 1
   314  423  424 1
   315  425  426 1
   316  425  427 1
   317  427  428 1
   318  428  429 ar
   319  428  438 ar
   320  429  430 ar
   321  430  431 ar
   322  431  432 1
   323  431  438 ar
   324  432  433 2
   325  432  434 am
   326  434  435 1
   327  435  437 2
   328  435  436 2
   329  437  438 1
   330  394  416 1
   331  450  451 1
   332  450  452 1
   333  450  453 1
   334  453  454 1
   335  454  455 1
   336  455  457 1
   337  455  456 1
   338  456  461 1
   339  457  459 1
   340  457  458 1
   341  459  461 1
   342  459  460 1
   343  461  462 1
   344  462  471 ar
   345  462  463 ar
   346  463  464 ar
   347  464  465 ar
   348  465  471 ar
   349  465  466 ar
   350  466  468 ar
   351  466  467 1
   352  468  469 ar
   353  469  470 ar
   354  470  471 ar
   355  424  450 1
   356  483  484 1
   357  483  485 1
   358  483  486 1
   359  486  487 1
   360  487  488 1
   361  488  490 1
   362  488  489 1
   363  489  494 1
   364  490  492 1
   365  490  491 1
   366  492  494 1
   367  492  493 1
   368  494  495 1
   369  495  504 ar
   370  495  496 ar
   371  496  497 ar
   372  497  498 ar
   373  498  504 ar
   374  498  499 ar
   375  499  501 ar
   376  499  500 1
   377  501  502 ar
   378  502  503 ar
   379  503  504 ar
   380  458  483 1
   381  516  519 1
   382  516  517 1
   383  516  518 1
   384  519  520 1
   385  520  521 1
   386  521  522 1
   387  521  523 1
   388  522  527 1
   389  523  525 1
   390  523  524 1
   391  525  526 1
   392  525  527 1
   393  527  528 1
   394  528  529 ar
   395  528  538 ar
   396  529  530 ar
   397  530  531 ar
   398  531  532 1
   399  531  538 ar
   400  532  533 2
   401  532  534 am
   402  534  535 1
   403  535  537 2
   404  535  536 2
   405  537  538 1
   406  491  516 1
   407  550  551 1
   408  550  552 1
   409  550  553 1
   410  553  554 1
   411  554  555 1
   412  555  557 1
   413  555  556 1
   414  556  561 1
   415  557  559 1
   416  557  558 1
   417  559  560 1
   418  559  561 1
   419  561  562 1
   420  562  563 am
   421  562  569 1
   422  563  564 2
   423  563  565 am
   424  565  566 am
   425  566  568 1
   426  566  567 2
   427  568  569 2
   428  524  550 1
   429  580  581 1
   430  580  583 1
   431  580  582 1
   432  583  584 1
   433  584  585 1
   434  585  586 1
   435  585  587 1
   436  586  591 1
   437  587  588 1
   438  587  589 1
   439  589  590 1
   440  589  591 1
   441  591  592 1
   442  592  599 1
   443  592  593 am
   444  593  595 1
   445  593  594 2
   446  595  596 2
   447  596  597 2
   448  596  598 2
   449  598  599 2
   450  558  580 1
   451  611  614 1
   452  611  612 1
   453  611  613 1
   454  614  615 1
   455  615  616 1
   456  616  617 1
   457  616  618 1
   458  617  622 1
   459  618  620 1
   460  618  619 1
   461  620  621 1
   462  620  622 1
   463  622  623 1
   464  623  624 ar
   465  623  633 ar
   466  624  625 ar
   467  625  626 ar
   468  626  627 1
   469  626  633 ar
   470  627  628 2
   471  627  629 am
   472  629  630 1
   473  630  632 2
   474  630  631 2
   475  632  633 1
   476  588  611 1
   477  648  649 1
   478  649  650 1
   479  650  652 1
   480  650  651 1
   481  651  656 1
   482  652  654 1
   483  652  653 1
   484  654  655 1
   485  654  656 1
   486  656  657 1
   487  657  664 1
   488  657  658 am
   489  658  659 2
   490  658  660 1
   491  660  661 2
   492  661  663 2
   493  661  662 2
   494  663  664 2
   495  645  646 1
   496  645  647 1
   497  645  648 1
   498  619  645 1
   499  677  678 1
   500  678  679 1
   501  679  681 1
   502  679  680 1
   503  680  685 1
   504  681  683 1
   505  681  682 1
   506  683  685 1
   507  683  684 1
   508  685  686 1
   509  686  696 ar
   510  686  687 ar
   511  687  688 ar
   512  688  689 ar
   513  689  696 ar
   514  689  690 1
   515  690  691 2
   516  690  692 am
   517  692  693 1
   518  693  694 2
   519  693  695 2
   520  695  696 1
   521  709  710 1
   522  709  712 1
   523  709  711 1
   524  712  713 1
   525  713  714 1
   526  714  715 1
   527  714  716 1
   528  715  720 1
   529  716  717 1
   530  716  718 1
   531  718  719 1
   532  718  720 1
   533  720  721 1
   534  721  728 1
   535  721  722 am
   536  722  724 1
   537  722  723 2
   538  724  725 2
   539  725  726 2
   540  725  727 2
   541  727  728 2
   542  709  682 1
   543  740  743 1
   544  740  741 1
   545  740  742 1
   546  743  744 1
   547  744  745 1
   548  745  746 1
   549  745  747 1
   550  746  751 1
   551  747  749 1
   552  747  748 1
   553  749  750 1
   554  749  751 1
   555  751  752 1
   556  752  753 ar
   557  752  762 ar
   558  753  754 ar
   559  754  755 ar
   560  755  756 1
   561  755  762 ar
   562  756  757 2
   563  756  758 am
   564  758  759 1
   565  759  761 2
   566  759  760 2
   567  761  762 1
   568  717  740 1
   569  774  775 1
   570  774  776 1
   571  774  777 1
   572  777  778 1
   573  778  779 1
   574  779  781 1
   575  779  780 1
   576  780  785 1
   577  781  783 1
   578  781  782 1
   579  783  784 1
   580  783  785 1
   581  785  786 1
   582  786  787 am
   583  786  793 1
   584  787  788 2
   585  787  789 am
   586  789  790 am
   587  790  792 1
   588  790  791 2
   589  792  793 2
   590  748  774 1
   591  804  805 1
   592  804  807 1
   593  804  806 1
   594  807  808 1
   595  808  809 1
   596  809  810 1
   597  809  811 1
   598  810  815 1
   599  811  812 1
   600  811  813 1
   601  813  814 1
   602  813  815 1
   603  815  816 1
   604  816  823 1
   605  816  817 am
   606  817  819 1
   607  817  818 2
   608  819  820 2
   609  820  821 2
   610  820  822 2
   611  822  823 2
   612  782  804 1
   613  835  836 1
   614  835  837 1
   615  835  838 1
   616  838  839 1
   617  839  840 1
   618  840  842 1
   619  840  841 1
   620  841  846 1
   621  842  844 1
   622  842  843 1
   623  844  846 1
   624  844  845 1
   625  846  847 1
   626  847  856 ar
   627  847  848 ar
   628  848  849 ar
   629  849  850 ar
   630  850  856 ar
   631  850  851 ar
   632  851  853 ar
   633  851  852 1
   634  853  854 ar
   635  854  855 ar
   636  855  856 ar
   637  812  835 1
   638  868  869 1
   639  868  871 1
   640  868  870 1
   641  871  872 1
   642  872  873 1
   643  873  874 1
   644  873  875 1
   645  874  879 1
   646  875  876 1
   647  875  877 1
   648  877  878 1
   649  877  879 1
   650  879  880 1
   651  880  887 1
   652  880  881 am
   653  881  883 1
   654  881  882 2
   655  883  884 2
   656  884  885 2
   657  884  886 2
   658  886  887 2
   659  843  868 1
   660  899  900 1
   661  899  901 1
   662  899  902 1
   663  902  903 1
   664  903  904 1
   665  904  906 1
   666  904  905 1
   667  905  910 1
   668  906  908 1
   669  906  907 1
   670  908  910 1
   671  908  909 1
   672  910  911 1
   673  911  920 ar
   674  911  912 ar
   675  912  913 ar
   676  913  914 ar
   677  914  920 ar
   678  914  915 ar
   679  915  917 ar
   680  915  916 1
   681  917  918 ar
   682  918  919 ar
   683  919  920 ar
   684  876  899 1
   685  932  933 1
   686  932  935 1
   687  932  934 1
   688  935  936 1
   689  936  937 1
   690  937  938 1
   691  937  939 1
   692  938  943 1
   693  939  940 1
   694  939  941 1
   695  941  942 1
   696  941  943 1
   697  943  944 1
   698  944  951 1
   699  944  945 am
   700  945  947 1
   701  945  946 2
   702  947  948 2
   703  948  949 2
   704  948  950 2
   705  950  951 2
   706  907  932 1
   707  963  964 1
   708  963  966 1
   709  963  965 1
   710  966  967 1
   711  967  968 1
   712  968  969 1
   713  968  970 1
   714  969  974 1
   715  970  971 1
   716  970  972 1
   717  972  973 1
   718  972  974 1
   719  974  975 1
   720  975  982 1
   721  975  976 am
   722  976  978 1
   723  976  977 2
   724  978  979 2
   725  979  980 2
   726  979  981 2
   727  981  982 2
   728  940  963 1
   729  994  997 1
   730  994  995 1
   731  994  996 1
   732  997  998 1
   733  998  999 1
   734  999 1000 1
   735  999 1001 1
   736 1000 1005 1
   737 1001 1003 1
   738 1001 1002 1
   739 1003 1004 1
   740 1003 1005 1
   741 1005 1006 1
   742 1006 1007 ar
   743 1006 1016 ar
   744 1007 1008 ar
   745 1008 1009 ar
   746 1009 1010 1
   747 1009 1016 ar
   748 1010 1011 2
   749 1010 1012 am
   750 1012 1013 1
   751 1013 1015 2
   752 1013 1014 2
   753 1015 1016 1
   754  971  994 1
   755 1028 1031 1
   756 1028 1029 1
   757 1028 1030 1
   758 1031 1032 1
   759 1032 1033 1
   760 1033 1034 1
   761 1033 1035 1
   762 1034 1039 1
   763 1035 1037 1
   764 1035 1036 1
   765 1037 1038 1
   766 1037 1039 1
   767 1039 1040 1
   768 1040 1041 ar
   769 1040 1050 ar
   770 1041 1042 ar
   771 1042 1043 ar
   772 1043 1044 1
   773 1043 1050 ar
   774 1044 1045 2
   775 1044 1046 am
   776 1046 1047 1
   777 1047 1049 2
   778 1047 1048 2
   779 1049 1050 1
   780 1002 1028 1
   781 1062 1063 1
   782 1062 1064 1
   783 1062 1065 1
   784 1065 1066 1
   785 1066 1067 1
   786 1067 1069 1
   787 1067 1068 1
   788 1068 1073 1
   789 1069 1071 1
   790 1069 1070 1
   791 1071 1072 1
   792 1071 1073 1
   793 1073 1074 1
   794 1074 1075 am
   795 1074 1081 1
   796 1075 1076 2
   797 1075 1077 am
   798 1077 1078 am
   799 1078 1080 1
   800 1078 1079 2
   801 1080 1081 2
   802 1036 1062 1
   803 1092 1095 1
   804 1092 1093 1
   805 1092 1094 1
   806 1095 1096 1
   807 1096 1097 1
   808 1097 1098 1
   809 1097 1099 1
   810 1098 1103 1
   811 1099 1101 1
   812 1099 1100 1
   813 1101 1102 1
   814 1101 1103 1
   815 1103 1104 1
   816 1104 1105 ar
   817 1104 1114 ar
   818 1105 1106 ar
   819 1106 1107 ar
   820 1107 1108 1
   821 1107 1114 ar
   822 1108 1109 2
   823 1108 1110 am
   824 1110 1111 1
   825 1111 1113 2
   826 1111 1112 2
   827 1113 1114 1
   828 1070 1092 1
   829 1126 1127 1
   830 1126 1128 1
   831 1126 1129 1
   832 1129 1130 1
   833 1130 1131 1
   834 1131 1133 1
   835 1131 1132 1
   836 1132 1137 1
   837 1133 1135 1
   838 1133 1134 1
   839 1135 1137 1
   840 1135 1136 1
   841 1137 1138 1
   842 1138 1147 ar
   843 1138 1139 ar
   844 1139 1140 ar
   845 1140 1141 ar
   846 1141 1147 ar
   847 1141 1142 ar
   848 1142 1144 ar
   849 1142 1143 1
   850 1144 1145 ar
   851 1145 1146 ar
   852 1146 1147 ar
   853 1100 1126 1
   854 1159 1160 1
   855 1159 1161 1
   856 1159 1162 1
   857 1162 1163 1
   858 1163 1164 1
   859 1164 1166 1
   860 1164 1165 1
   861 1165 1170 1
   862 1166 1168 1
   863 1166 1167 1
   864 1168 1170 1
   865 1168 1169 1
   866 1170 1171 1
   867 1171 1180 ar
   868 1171 1172 ar
   869 1172 1173 ar
   870 1173 1174 ar
   871 1174 1180 ar
   872 1174 1175 ar
   873 1175 1177 ar
   874 1175 1176 1
   875 1177 1178 ar
   876 1178 1179 ar
   877 1179 1180 ar
   878 1134 1159 1
   879 1192 1195 1
   880 1192 1193 1
   881 1192 1194 1
   882 1195 1196 1
   883 1196 1197 1
   884 1197 1198 1
   885 1197 1199 1
   886 1198 1203 1
   887 1199 1201 1
   888 1199 1200 1
   889 1201 1202 1
   890 1201 1203 1
   891 1203 1204 1
   892 1204 1205 ar
   893 1204 1214 ar
   894 1205 1206 ar
   895 1206 1207 ar
   896 1207 1208 1
   897 1207 1214 ar
   898 1208 1209 2
   899 1208 1210 am
   900 1210 1211 1
   901 1211 1213 2
   902 1211 1212 2
   903 1213 1214 1
   904 1167 1192 1
   905 1226 1227 1
   906 1226 1228 1
   907 1226 1229 1
   908 1229 1230 1
   909 1230 1231 1
   910 1231 1233 1
   911 1231 1232 1
   912 1232 1237 1
   913 1233 1235 1
   914 1233 1234 1
   915 1235 1236 1
   916 1235 1237 1
   917 1237 1238 1
   918 1238 1239 am
   919 1238 1245 1
   920 1239 1240 2
   921 1239 1241 am
   922 1241 1242 am
   923 1242 1244 1
   924 1242 1243 2
   925 1244 1245 2
   926 1200 1226 1
   927 1256 1257 1
   928 1256 1259 1
   929 1256 1258 1
   930 1259 1260 1
   931 1260 1261 1
   932 1261 1262 1
   933 1261 1263 1
   934 1262 1267 1
   935 1263 1264 1
   936 1263 1265 1
   937 1265 1266 1
   938 1265 1267 1
   939 1267 1268 1
   940 1268 1275 1
   941 1268 1269 am
   942 1269 1271 1
   943 1269 1270 2
   944 1271 1272 2
   945 1272 1273 2
   946 1272 1274 2
   947 1274 1275 2
   948 1234 1256 1
   949 1287 1290 1
   950 1287 1288 1
   951 1287 1289 1
   952 1290 1291 1
   953 1291 1292 1
   954 1292 1293 1
   955 1292 1294 1
   956 1293 1298 1
   957 1294 1296 1
   958 1294 1295 1
   959 1296 1297 1
   960 1296 1298 1
   961 1298 1299 1
   962 1299 1300 ar
   963 1299 1309 ar
   964 1300 1301 ar
   965 1301 1302 ar
   966 1302 1303 1
   967 1302 1309 ar
   968 1303 1304 2
   969 1303 1305 am
   970 1305 1306 1
   971 1306 1308 2
   972 1306 1307 2
   973 1308 1309 1
   974 1264 1287 1
   975 1324 1325 1
   976 1325 1326 1
   977 1326 1328 1
   978 1326 1327 1
   979 1327 1332 1
   980 1328 1330 1
   981 1328 1329 1
   982 1330 1331 1
   983 1330 1332 1
   984 1332 1333 1
   985 1333 1340 1
   986 1333 1334 am
   987 1334 1335 2
   988 1334 1336 1
   989 1336 1337 2
   990 1337 1339 2
   991 1337 1338 2
   992 1339 1340 2
   993 1321 1322 1
   994 1321 1323 1
   995 1321 1324 1
   996 1295 1321 1
   997   21    2 1
   998   22    2 1
   999   23    3 1
  1000   24    5 1
  1001   25    7 1
  1002   26    8 1
  1003   27    9 1
  1004   28   11 1
  1005   29   16 1
  1006   30   18 1
  1007   31   18 1
  1008   53   37 1
  1009   54   37 1
  1010   55   38 1
  1011   56   40 1
  1012   57   42 1
  1013   58   43 1
  1014   59   44 1
  1015   60   50 1
  1016   61   50 1
  1017   62   51 1
  1018   63   52 1
  1019   87   68 1
  1020   88   68 1
  1021   89   69 1
  1022   90   71 1
  1023   91   73 1
  1024   92   74 1
  1025   93   75 1
  1026   94   77 1
  1027   95   82 1
  1028   96   84 1
  1029   97   84 1
  1030  118  102 1
  1031  119  102 1
  1032  120  103 1
  1033  121  105 1
  1034  122  107 1
  1035  123  108 1
  1036  124  109 1
  1037  125  113 1
  1038  126  116 1
  1039  127  117 1
  1040  148  132 1
  1041  149  132 1
  1042  150  133 1
  1043  151  135 1
  1044  152  137 1
  1045  153  138 1
  1046  154  139 1
  1047  155  145 1
  1048  156  145 1
  1049  157  146 1
  1050  158  147 1
  1051  181  163 1
  1052  182  163 1
  1053  183  164 1
  1054  184  166 1
  1055  185  168 1
  1056  186  169 1
  1057  187  170 1
  1058  188  172 1
  1059  189  176 1
  1060  190  176 1
  1061  191  178 1
  1062  212  196 1
  1063  213  196 1
  1064  214  197 1
  1065  215  199 1
  1066  216  201 1
  1067  217  202 1
  1068  218  203 1
  1069  219  209 1
  1070  220  209 1
  1071  221  210 1
  1072  222  211 1
  1073  245  227 1
  1074  246  227 1
  1075  247  228 1
  1076  248  230 1
  1077  249  232 1
  1078  250  233 1
  1079  251  234 1
  1080  252  236 1
  1081  253  240 1
  1082  254  240 1
  1083  255  242 1
  1084  276  260 1
  1085  277  260 1
  1086  278  261 1
  1087  279  263 1
  1088  280  265 1
  1089  281  266 1
  1090  282  267 1
  1091  283  273 1
  1092  284  273 1
  1093  285  274 1
  1094  286  275 1
  1095  307  291 1
  1096  308  291 1
  1097  309  292 1
  1098  310  294 1
  1099  311  296 1
  1100  312  297 1
  1101  313  298 1
  1102  314  304 1
  1103  315  304 1
  1104  316  305 1
  1105  317  306 1
  1106  341  322 1
  1107  342  322 1
  1108  343  323 1
  1109  344  325 1
  1110  345  327 1
  1111  346  328 1
  1112  347  329 1
  1113  348  331 1
  1114  349  336 1
  1115  350  338 1
  1116  351  338 1
  1117  375  356 1
  1118  376  356 1
  1119  377  357 1
  1120  378  359 1
  1121  379  361 1
  1122  380  362 1
  1123  381  363 1
  1124  382  365 1
  1125  383  370 1
  1126  384  372 1
  1127  385  372 1
  1128  406  390 1
  1129  407  390 1
  1130  408  391 1
  1131  409  393 1
  1132  410  395 1
  1133  411  396 1
  1134  412  397 1
  1135  413  401 1
  1136  414  404 1
  1137  415  405 1
  1138  439  420 1
  1139  440  420 1
  1140  441  421 1
  1141  442  423 1
  1142  443  425 1
  1143  444  426 1
  1144  445  427 1
  1145  446  429 1
  1146  447  434 1
  1147  448  436 1
  1148  449  436 1
  1149  472  454 1
  1150  473  454 1
  1151  474  455 1
  1152  475  457 1
  1153  476  459 1
  1154  477  460 1
  1155  478  461 1
  1156  479  463 1
  1157  480  467 1
  1158  481  467 1
  1159  482  469 1
  1160  505  487 1
  1161  506  487 1
  1162  507  488 1
  1163  508  490 1
  1164  509  492 1
  1165  510  493 1
  1166  511  494 1
  1167  512  496 1
  1168  513  500 1
  1169  514  500 1
  1170  515  502 1
  1171  539  520 1
  1172  540  520 1
  1173  541  521 1
  1174  542  523 1
  1175  543  525 1
  1176  544  526 1
  1177  545  527 1
  1178  546  529 1
  1179  547  534 1
  1180  548  536 1
  1181  549  536 1
  1182  570  554 1
  1183  571  554 1
  1184  572  555 1
  1185  573  557 1
  1186  574  559 1
  1187  575  560 1
  1188  576  561 1
  1189  577  565 1
  1190  578  568 1
  1191  579  569 1
  1192  600  584 1
  1193  601  584 1
  1194  602  585 1
  1195  603  587 1
  1196  604  589 1
  1197  605  590 1
  1198  606  591 1
  1199  607  597 1
  1200  608  597 1
  1201  609  598 1
  1202  610  599 1
  1203  634  615 1
  1204  635  615 1
  1205  636  616 1
  1206  637  618 1
  1207  638  620 1
  1208  639  621 1
  1209  640  622 1
  1210  641  624 1
  1211  642  629 1
  1212  643  631 1
  1213  644  631 1
  1214  665  649 1
  1215  666  649 1
  1216  667  650 1
  1217  668  652 1
  1218  669  653 1
  1219  670  654 1
  1220  671  655 1
  1221  672  656 1
  1222  673  662 1
  1223  674  662 1
  1224  675  663 1
  1225  676  664 1
  1226  697  678 1
  1227  698  678 1
  1228  699  679 1
  1229  700  681 1
  1230  701  683 1
  1231  702  684 1
  1232  703  685 1
  1233  704  687 1
  1234  705  692 1
  1235  706  694 1
  1236  707  694 1
  1237  729  713 1
  1238  730  713 1
  1239  731  714 1
  1240  732  716 1
  1241  733  718 1
  1242  734  719 1
  1243  735  720 1
  1244  736  726 1
  1245  737  726 1
  1246  738  727 1
  1247  739  728 1
  1248  763  744 1
  1249  764  744 1
  1250  765  745 1
  1251  766  747 1
  1252  767  749 1
  1253  768  750 1
  1254  769  751 1
  1255  770  753 1
  1256  771  758 1
  1257  772  760 1
  1258  773  760 1
  1259  794  778 1
  1260  795  778 1
  1261  796  779 1
  1262  797  781 1
  1263  798  783 1
  1264  799  784 1
  1265  800  785 1
  1266  801  789 1
  1267  802  792 1
  1268  803  793 1
  1269  824  808 1
  1270  825  808 1
  1271  826  809 1
  1272  827  811 1
  1273  828  813 1
  1274  829  814 1
  1275  830  815 1
  1276  831  821 1
  1277  832  821 1
  1278  833  822 1
  1279  834  823 1
  1280  857  839 1
  1281  858  839 1
  1282  859  840 1
  1283  860  842 1
  1284  861  844 1
  1285  862  845 1
  1286  863  846 1
  1287  864  848 1
  1288  865  852 1
  1289  866  852 1
  1290  867  854 1
  1291  888  872 1
  1292  889  872 1
  1293  890  873 1
  1294  891  875 1
  1295  892  877 1
  1296  893  878 1
  1297  894  879 1
  1298  895  885 1
  1299  896  885 1
  1300  897  886 1
  1301  898  887 1
  1302  921  903 1
  1303  922  903 1
  1304  923  904 1
  1305  924  906 1
  1306  925  908 1
  1307  926  909 1
  1308  927  910 1
  1309  928  912 1
  1310  929  916 1
  1311  930  916 1
  1312  931  918 1
  1313  952  936 1
  1314  953  936 1
  1315  954  937 1
  1316  955  939 1
  1317  956  941 1
  1318  957  942 1
  1319  958  943 1
  1320  959  949 1
  1321  960  949 1
  1322  961  950 1
  1323  962  951 1
  1324  983  967 1
  1325  984  967 1
  1326  985  968 1
  1327  986  970 1
  1328  987  972 1
  1329  988  973 1
  1330  989  974 1
  1331  990  980 1
  1332  991  980 1
  1333  992  981 1
  1334  993  982 1
  1335 1017  998 1
  1336 1018  998 1
  1337 1019  999 1
  1338 1020 1001 1
  1339 1021 1003 1
  1340 1022 1004 1
  1341 1023 1005 1
  1342 1024 1007 1
  1343 1025 1012 1
  1344 1026 1014 1
  1345 1027 1014 1
  1346 1051 1032 1
  1347 1052 1032 1
  1348 1053 1033 1
  1349 1054 1035 1
  1350 1055 1037 1
  1351 1056 1038 1
  1352 1057 1039 1
  1353 1058 1041 1
  1354 1059 1046 1
  1355 1060 1048 1
  1356 1061 1048 1
  1357 1082 1066 1
  1358 1083 1066 1
  1359 1084 1067 1
  1360 1085 1069 1
  1361 1086 1071 1
  1362 1087 1072 1
  1363 1088 1073 1
  1364 1089 1077 1
  1365 1090 1080 1
  1366 1091 1081 1
  1367 1115 1096 1
  1368 1116 1096 1
  1369 1117 1097 1
  1370 1118 1099 1
  1371 1119 1101 1
  1372 1120 1102 1
  1373 1121 1103 1
  1374 1122 1105 1
  1375 1123 1110 1
  1376 1124 1112 1
  1377 1125 1112 1
  1378 1148 1130 1
  1379 1149 1130 1
  1380 1150 1131 1
  1381 1151 1133 1
  1382 1152 1135 1
  1383 1153 1136 1
  1384 1154 1137 1
  1385 1155 1139 1
  1386 1156 1143 1
  1387 1157 1143 1
  1388 1158 1145 1
  1389 1181 1163 1
  1390 1182 1163 1
  1391 1183 1164 1
  1392 1184 1166 1
  1393 1185 1168 1
  1394 1186 1169 1
  1395 1187 1170 1
  1396 1188 1172 1
  1397 1189 1176 1
  1398 1190 1176 1
  1399 1191 1178 1
  1400 1215 1196 1
  1401 1216 1196 1
  1402 1217 1197 1
  1403 1218 1199 1
  1404 1219 1201 1
  1405 1220 1202 1
  1406 1221 1203 1
  1407 1222 1205 1
  1408 1223 1210 1
  1409 1224 1212 1
  1410 1225 1212 1
  1411 1246 1230 1
  1412 1247 1230 1
  1413 1248 1231 1
  1414 1249 1233 1
  1415 1250 1235 1
  1416 1251 1236 1
  1417 1252 1237 1
  1418 1253 1241 1
  1419 1254 1244 1
  1420 1255 1245 1
  1421 1276 1260 1
  1422 1277 1260 1
  1423 1278 1261 1
  1424 1279 1263 1
  1425 1280 1265 1
  1426 1281 1266 1
  1427 1282 1267 1
  1428 1283 1273 1
  1429 1284 1273 1
  1430 1285 1274 1
  1431 1286 1275 1
  1432 1310 1291 1
  1433 1311 1291 1
  1434 1312 1292 1
  1435 1313 1294 1
  1436 1314 1296 1
  1437 1315 1297 1
  1438 1316 1298 1
  1439 1317 1300 1
  1440 1318 1305 1
  1441 1319 1307 1
  1442 1320 1307 1
  1443 1341 1325 1
  1444 1342 1325 1
  1445 1343 1326 1
  1446 1344 1328 1
  1447 1345 1329 1
  1448 1346 1330 1
  1449 1347 1331 1
  1450 1348 1332 1
  1451 1349 1338 1
  1452 1350 1338 1
  1453 1351 1339 1
  1454 1352 1340 1
  1455   32    1 1
  1456  708  677 1
@<TRIPOS>SUBSTRUCTURE
     1   G     3 RESIDUE           4 A       G     1 ROOT
     2   C    38 RESIDUE           4 A       C     2
     3   G    69 RESIDUE           4 A       G     2
     4   U   103 RESIDUE           4 A       U     2
     5   C   133 RESIDUE           4 A       C     2
     6   A   164 RESIDUE           4 A       A     2
     7   C   197 RESIDUE           4 A       C     2
     8   A   228 RESIDUE           4 A       A     2
     9   C   261 RESIDUE           4 A       C     2
    10   C   292 RESIDUE           4 A       C     2
    11   G   323 RESIDUE           4 A       G     2
    12   G   357 RESIDUE           4 A       G     2
    13   U   391 RESIDUE           4 A       U     2
    14   G   421 RESIDUE           4 A       G     2
    15   A   455 RESIDUE           4 A       A     2
    16   A   488 RESIDUE           4 A       A     2
    17   G   521 RESIDUE           4 A       G     2
    18   U   555 RESIDUE           4 A       U     2
    19   C   585 RESIDUE           4 A       C     2
    20   G   616 RESIDUE           4 A       G     2
    21   C   650 RESIDUE           4 A       C     1
    22   G   679 RESIDUE           4 B       G     1 ROOT
    23   C   714 RESIDUE           4 B       C     2
    24   G   745 RESIDUE           4 B       G     2
    25   U   779 RESIDUE           4 B       U     2
    26   C   809 RESIDUE           4 B       C     2
    27   A   840 RESIDUE           4 B       A     2
    28   C   873 RESIDUE           4 B       C     2
    29   A   904 RESIDUE           4 B       A     2
    30   C   937 RESIDUE           4 B       C     2
    31   C   968 RESIDUE           4 B       C     2
    32   G   999 RESIDUE           4 B       G     2
    33   G  1033 RESIDUE           4 B       G     2
    34   U  1067 RESIDUE           4 B       U     2
    35   G  1097 RESIDUE           4 B       G     2
    36   A  1131 RESIDUE           4 B       A     2
    37   A  1164 RESIDUE           4 B       A     2
    38   G  1197 RESIDUE           4 B       G     2
    39   U  1231 RESIDUE           4 B       U     2
    40   C  1261 RESIDUE           4 B       C     2
    41   G  1292 RESIDUE           4 B       G     2
    42   C  1326 RESIDUE           4 B       C     1
