
##########                                Name:            2esj.pdb
##########                DOCK_Rotatable_Bonds:                  22
##########                    Molecular_Weight:             766.818
##########                       Formal_Charge:              4.9988
##########                            HA_RMSDs:             11.9379
##########                            HA_RMSDh:              8.2600
##########                            HA_RMSDm:              6.7630
##########                          Grid_Score:         -185.837662
##########                     Grid_vdw_energy:          -62.931885
##########                      Grid_es_energy:         -122.905777
##########           Internal_energy_repulsive:           48.009647

@<TRIPOS>MOLECULE
2esj.pdb
 112 116 1 0 0
SMALL
AMBER ff14SB


@<TRIPOS>ATOM
      1 C11        22.7951   -6.6487   11.8282 C.3     1  LIV         0.2006
      2 O11        22.8252   -5.6276   12.8437 O.3     1  LIV        -0.3355
      3 C21        21.3102   -7.0781   11.6392 C.3     1  LIV         0.0280
      4 N21        20.4459   -5.9474   11.3021 N.4     1  LIV         0.2376
      5 C31        20.7705   -7.7954   12.9172 C.3     1  LIV         0.0228
      6 C41        21.7195   -8.9793   13.2683 C.3     1  LIV         0.0880
      7 O41        21.2455   -9.7235   14.3762 O.3     1  LIV        -0.3901
      8 C51        23.1357   -8.4085   13.5284 C.3     1  LIV         0.1100
      9 O51        23.5787   -7.7718   12.2958 O.3     1  LIV        -0.3391
     10 C61        24.1450   -9.4637   13.8292 C.3     1  LIV         0.0720
     11 O61        25.3537   -8.8145   14.1417 O.3     1  LIV        -0.3936
     12 C12        23.5442   -1.4200   13.1036 C.3     1  LIV         0.0077
     13 N12        23.5724    0.0343   12.8767 N.4     1  LIV         0.2359
     14 C62        22.0853   -1.8939   13.4420 C.3     1  LIV         0.1244
     15 O62        21.6764   -1.2250   14.6646 O.3     1  LIV        -0.3845
     16 C52        22.0473   -3.4342   13.7217 C.3     1  LIV         0.1237
     17 O52        20.7033   -3.9237   13.9870 O.3     1  LIV        -0.3407
     18 C42        22.6676   -4.2313   12.5296 C.3     1  LIV         0.1313
     19 C32        24.0761   -3.7420   12.1034 C.3     1  LIV         0.0081
     20 N32        24.5366   -4.4782   10.9215 N.4     1  LIV         0.2359
     21 C22        24.0575   -2.1860   11.8202 C.3     1  LIV         0.0362
     22 C13        19.6092   -3.0543   13.7968 C.3     1  LIV         0.1867
     23 C23        18.9142   -3.3630   12.4701 C.3     1  LIV         0.1337
     24 O23        19.4972   -2.6428   11.3625 O.3     1  LIV        -0.3850
     25 C33        17.5064   -2.9563   12.7972 C.3     1  LIV         0.1202
     26 C43        17.2925   -3.3283   14.2789 C.3     1  LIV         0.1128
     27 O43        18.6019   -3.1942   14.8084 O.3     1  LIV        -0.3414
     28 C53        16.7755   -4.7389   14.5591 C.3     1  LIV         0.0721
     29 O53        17.4314   -5.2122   15.7447 O.3     1  LIV        -0.3936
     30 C44        14.3734    0.0184   10.0731 C.3     1  LIV         0.1236
     31 O44        13.3332   -0.2791   11.0057 O.3     1  LIV        -0.3407
     32 C34        15.3448    0.9853   10.8672 C.3     1  LIV         0.1292
     33 O34        16.3861    1.3327    9.9486 O.3     1  LIV        -0.3843
     34 C24        15.9913    0.2548   12.1256 C.3     1  LIV         0.0546
     35 N24        15.0178   -0.2253   13.1419 N.4     1  LIV         0.2396
     36 C14        16.9186   -0.9362   11.6128 C.3     1  LIV         0.2031
     37 O33        17.3808   -1.5570   12.7762 O.3     1  LIV        -0.3384
     38 C54        15.1417   -1.2767    9.8924 C.3     1  LIV         0.1283
     39 O54        16.1264   -1.8978   10.7463 O.3     1  LIV        -0.3358
     40 C64        14.4463   -2.3827    9.0402 C.3     1  LIV        -0.0082
     41 N64        14.0824   -1.9329    7.6801 N.4     1  LIV         0.2336
     42 C15        11.8381    0.4528   10.9388 C.3     1  LIV         0.1867
     43 C25        11.2050   -0.4559   11.9862 C.3     1  LIV         0.1333
     44 C35        10.5639   -1.7273   11.4431 C.3     1  LIV         0.1133
     45 C45         9.6269   -1.4876   10.2580 C.3     1  LIV         0.1111
     46 C55        10.2042   -0.4640    9.2867 C.3     1  LIV         0.1123
     47 C65         9.4814   -0.0204    8.0169 C.3     1  LIV         0.0721
     48 O25        10.1946    0.2807   12.7037 O.3     1  LIV        -0.3850
     49 O35         9.8276   -2.3223   12.5174 O.3     1  LIV        -0.3874
     50 O45         9.3583   -2.7720    9.6726 O.3     1  LIV        -0.3875
     51 O55        11.0346    0.6142    9.7448 O.3     1  LIV        -0.3414
     52 O65         8.7929    1.2364    8.2518 O.3     1  LIV        -0.3936
     53 H11        23.2017   -6.2655   10.8923 H       1  LIV         0.0986
     54 H21        21.2694   -7.7887   10.8137 H       1  LIV         0.0905
     55 HN21       20.7995   -5.4875   10.4753 H       1  LIV         0.1965
     56 HN22       19.5087   -6.2808   11.1268 H       1  LIV         0.1965
     57 HN23       20.4321   -5.2931   12.0713 H       1  LIV         0.1965
     58 H312       19.7665   -8.1749   12.7274 H       1  LIV         0.0354
     59 H313       20.7434   -7.0902   13.7479 H       1  LIV         0.0354
     60 H41        21.7712   -9.6441   12.4060 H       1  LIV         0.0632
     61 HO41       20.3966  -10.1156   14.1585 H       1  LIV         0.2106
     62 H51        23.1035   -7.6786   14.3373 H       1  LIV         0.0657
     63 H612       23.8148  -10.0638   14.6771 H       1  LIV         0.0592
     64 H613       24.2833  -10.1019   12.9565 H       1  LIV         0.0592
     65 HO61       25.6219   -8.2635   13.4027 H       1  LIV         0.2102
     66 H12        24.1971   -1.6595   13.9429 H       1  LIV         0.0881
     67 HN11       24.5156    0.3235   12.6605 H       1  LIV         0.1964
     68 HN12       23.2568    0.5109   13.7094 H       1  LIV         0.1964
     69 HN13       22.9638    0.2664   12.1048 H       1  LIV         0.1964
     70 H62        21.4069   -1.6407   12.6273 H       1  LIV         0.0689
     71 HO62       21.8075   -0.2786   14.5707 H       1  LIV         0.2109
     72 H52        22.6545   -3.6285   14.6058 H       1  LIV         0.0665
     73 H42        21.9993   -4.1445   11.6729 H       1  LIV         0.0694
     74 H32        24.7700   -3.9350   12.9216 H       1  LIV         0.0881
     75 HN31       25.4538   -4.1494   10.6558 H       1  LIV         0.1964
     76 HN32       24.5816   -5.4641   11.1358 H       1  LIV         0.1964
     77 HN33       23.8913   -4.3285   10.1591 H       1  LIV         0.1964
     78 H222       25.0651   -1.8497   11.5759 H       1  LIV         0.0384
     79 H223       23.3921   -1.9774   10.9825 H       1  LIV         0.0384
     80 H13        19.9660   -2.0244   13.7847 H       1  LIV         0.0953
     81 H23        18.9525   -4.4345   12.2743 H       1  LIV         0.0684
     82 HO23       19.3214   -3.1147   10.5452 H       1  LIV         0.2109
     83 H33        16.7796   -3.4412   12.1455 H       1  LIV         0.0663
     84 H43        16.6327   -2.5978   14.7472 H       1  LIV         0.0658
     85 H532       17.0076   -5.3937   13.7193 H       1  LIV         0.0592
     86 H533       15.6977   -4.7120   14.7193 H       1  LIV         0.0592
     87 HO53       17.2907   -6.1577   15.8330 H       1  LIV         0.2102
     88 H44        14.0094    0.4415    9.1368 H       1  LIV         0.0665
     89 H34        14.8090    1.8797   11.1851 H       1  LIV         0.0691
     90 HO34       16.6723    0.5472    9.4766 H       1  LIV         0.2109
     91 H24        16.6405    0.9783   12.6188 H       1  LIV         0.0933
     92 HN24       15.4696   -0.2765   14.0437 H       1  LIV         0.1967
     93 HN25       14.2393    0.4163   13.1916 H       1  LIV         0.1967
     94 HN26       14.6827   -1.1416   12.8806 H       1  LIV         0.1967
     95 H14        17.7595   -0.5344   11.0476 H       1  LIV         0.0987
     96 H54        15.8292   -0.9230    9.1242 H       1  LIV         0.0690
     97 H642       13.5381   -2.6957    9.5551 H       1  LIV         0.0841
     98 H643       15.1172   -3.2380    8.9597 H       1  LIV         0.0841
     99 HN61       13.8003   -2.7288    7.1259 H       1  LIV         0.1961
    100 HN62       13.3184   -1.2745    7.7365 H       1  LIV         0.1961
    101 HN63       14.8794   -1.4875    7.2482 H       1  LIV         0.1961
    102 H15        11.9430    1.4391   11.3908 H       1  LIV         0.0953
    103 H25        11.9803   -0.7449   12.6958 H       1  LIV         0.0684
    104 H35        11.3521   -2.4141   11.1346 H       1  LIV         0.0659
    105 H45         8.6883   -1.0915   10.6457 H       1  LIV         0.0658
    106 H55        10.9752   -1.0848    8.8303 H       1  LIV         0.0658
    107 H652       10.2078    0.1104    7.2149 H       1  LIV         0.0592
    108 H653        8.7566   -0.7817    7.7283 H       1  LIV         0.0592
    109 HO25       10.3635    1.2218   12.6178 H       1  LIV         0.2109
    110 HO35       10.1357   -3.2206   12.6582 H       1  LIV         0.2107
    111 HO45        8.8566   -3.3076   10.2914 H       1  LIV         0.2107
    112 HO65        8.3494    1.2048    9.1027 H       1  LIV         0.2102
@<TRIPOS>BOND
     1     1     2    1
     2     1     3    1
     3     1     9    1
     4     2    18    1
     5     3     4    1
     6     3     5    1
     7     5     6    1
     8     6     7    1
     9     6     8    1
    10     8     9    1
    11     8    10    1
    12    10    11    1
    13    12    13    1
    14    12    14    1
    15    12    21    1
    16    14    15    1
    17    14    16    1
    18    16    17    1
    19    16    18    1
    20    17    22    1
    21    18    19    1
    22    19    20    1
    23    19    21    1
    24    22    23    1
    25    22    27    1
    26    23    24    1
    27    23    25    1
    28    25    26    1
    29    25    37    1
    30    26    27    1
    31    26    28    1
    32    28    29    1
    33    30    31    1
    34    30    32    1
    35    30    38    1
    36    31    42    1
    37    32    33    1
    38    32    34    1
    39    34    35    1
    40    34    36    1
    41    36    37    1
    42    36    39    1
    43    38    39    1
    44    38    40    1
    45    40    41    1
    46    42    43    1
    47    42    51    1
    48    43    44    1
    49    43    48    1
    50    44    45    1
    51    44    49    1
    52    45    46    1
    53    45    50    1
    54    46    47    1
    55    46    51    1
    56    47    52    1
    57    53     1    1
    58    54     3    1
    59    55     4    1
    60    56     4    1
    61    57     4    1
    62    58     5    1
    63    59     5    1
    64    60     6    1
    65    61     7    1
    66    62     8    1
    67    63    10    1
    68    64    10    1
    69    65    11    1
    70    66    12    1
    71    67    13    1
    72    68    13    1
    73    69    13    1
    74    70    14    1
    75    71    15    1
    76    72    16    1
    77    73    18    1
    78    74    19    1
    79    75    20    1
    80    76    20    1
    81    77    20    1
    82    78    21    1
    83    79    21    1
    84    80    22    1
    85    81    23    1
    86    82    24    1
    87    83    25    1
    88    84    26    1
    89    85    28    1
    90    86    28    1
    91    87    29    1
    92    88    30    1
    93    89    32    1
    94    90    33    1
    95    91    34    1
    96    92    35    1
    97    93    35    1
    98    94    35    1
    99    95    36    1
   100    96    38    1
   101    97    40    1
   102    98    40    1
   103    99    41    1
   104   100    41    1
   105   101    41    1
   106   102    42    1
   107   103    43    1
   108   104    44    1
   109   105    45    1
   110   106    46    1
   111   107    47    1
   112   108    47    1
   113   109    48    1
   114   110    49    1
   115   111    50    1
   116   112    52    1
@<TRIPOS>SUBSTRUCTURE
     1 LIV         1 TEMP              0 ****  ****    0 ROOT

