
##########                                Name:            2esj.pdb
##########                DOCK_Rotatable_Bonds:                  22
##########                    Molecular_Weight:             766.818
##########                       Formal_Charge:              4.9988
##########                            HA_RMSDs:             11.0991
##########                            HA_RMSDh:             10.8985
##########                            HA_RMSDm:              9.2924
##########                          Grid_Score:         -176.683167
##########                     Grid_vdw_energy:          -50.844162
##########                      Grid_es_energy:         -125.839005
##########           Internal_energy_repulsive:           32.771755

@<TRIPOS>MOLECULE
2esj.pdb
 112 116 1 0 0
SMALL
AMBER ff14SB


@<TRIPOS>ATOM
      1 C11         9.9834   -0.0390   11.6345 C.3     1  LIV         0.2006
      2 O11         8.9975   -0.6890   10.8097 O.3     1  LIV        -0.3355
      3 C21         9.7399   -0.4950   13.1034 C.3     1  LIV         0.0280
      4 N21         9.7828   -1.9500   13.2455 N.4     1  LIV         0.2376
      5 C31         8.3771    0.0498   13.6373 C.3     1  LIV         0.0228
      6 C41         8.3468    1.5961   13.4538 C.3     1  LIV         0.0880
      7 O41         7.1664    2.1670   13.9894 O.3     1  LIV        -0.3901
      8 C51         8.4990    1.9113   11.9450 C.3     1  LIV         0.1100
      9 O51         9.7919    1.3910   11.5226 O.3     1  LIV        -0.3391
     10 C61         8.5314    3.3729   11.6535 C.3     1  LIV         0.0720
     11 O61         8.5504    3.5239   10.2546 O.3     1  LIV        -0.3936
     12 C12         9.5097   -2.3163    6.8883 C.3     1  LIV         0.0077
     13 N12         9.5646   -2.5269    5.4322 N.4     1  LIV         0.2359
     14 C62        10.5494   -1.2223    7.3236 C.3     1  LIV         0.1244
     15 O62        11.8729   -1.7074    6.9740 O.3     1  LIV        -0.3845
     16 C52        10.5272   -1.0144    8.8755 C.3     1  LIV         0.1237
     17 O52        11.4391    0.0303    9.3152 O.3     1  LIV        -0.3407
     18 C42         9.0820   -0.6892    9.3723 C.3     1  LIV         0.1313
     19 C32         8.0048   -1.6976    8.8951 C.3     1  LIV         0.0081
     20 N32         6.6717   -1.2621    9.3240 N.4     1  LIV         0.2359
     21 C22         8.0601   -1.8612    7.3229 C.3     1  LIV         0.0362
     22 C13        12.8155   -0.2609    9.4143 C.3     1  LIV         0.1867
     23 C23        13.6152    1.0283    9.6067 C.3     1  LIV         0.1337
     24 O23        13.9800    1.6424    8.3516 O.3     1  LIV        -0.3850
     25 C33        14.7795    0.5124   10.4019 C.3     1  LIV         0.1202
     26 C43        14.2104   -0.5916   11.3168 C.3     1  LIV         0.1128
     27 O43        13.1315   -1.0896   10.5416 O.3     1  LIV        -0.3414
     28 C53        13.6882   -0.1432   12.6813 C.3     1  LIV         0.0721
     29 O53        13.2766   -1.3187   13.3943 O.3     1  LIV        -0.3936
     30 C44        19.6671   -1.5782   10.5510 C.3     1  LIV         0.1236
     31 O44        19.2127   -2.9318   10.5934 O.3     1  LIV        -0.3407
     32 C34        19.3107   -1.0927    9.0859 C.3     1  LIV         0.1292
     33 O34        19.7843    0.2550    8.9956 O.3     1  LIV        -0.3843
     34 C24        17.7382   -1.1034    8.8362 C.3     1  LIV         0.0546
     35 N24        17.0910   -2.4360    8.9634 N.4     1  LIV         0.2396
     36 C14        17.0531   -0.0388    9.8048 C.3     1  LIV         0.2031
     37 O33        15.6821   -0.1688    9.5678 O.3     1  LIV        -0.3384
     38 C54        18.7423   -0.8085   11.4743 C.3     1  LIV         0.1283
     39 O54        17.3974   -0.3320   11.2535 O.3     1  LIV        -0.3358
     40 C64        18.9548   -1.0221   13.0047 C.3     1  LIV        -0.0082
     41 N64        17.6968   -1.2565   13.7444 N.4     1  LIV         0.2336
     42 C15        20.2618   -4.2236   10.6712 C.3     1  LIV         0.1867
     43 C25        19.3601   -5.0656   11.5664 C.3     1  LIV         0.1333
     44 C35        19.5584   -4.8643   13.0640 C.3     1  LIV         0.1133
     45 C45        21.0211   -4.9314   13.5067 C.3     1  LIV         0.1111
     46 C55        21.9364   -4.2092   12.5244 C.3     1  LIV         0.1123
     47 C65        23.4502   -4.1227   12.7057 C.3     1  LIV         0.0721
     48 O25        19.5714   -6.4612   11.2731 O.3     1  LIV        -0.3850
     49 O35        18.8131   -5.8888   13.7312 O.3     1  LIV        -0.3874
     50 O45        21.0741   -4.4211   14.8489 O.3     1  LIV        -0.3875
     51 O55        21.6370   -4.1629   11.1209 O.3     1  LIV        -0.3414
     52 O65        24.0200   -5.4573   12.7593 O.3     1  LIV        -0.3936
     53 H11        10.9881   -0.3138   11.3132 H       1  LIV         0.0986
     54 H21        10.5337   -0.0746   13.7207 H       1  LIV         0.0905
     55 HN21       10.6659   -2.2967   12.8988 H       1  LIV         0.1965
     56 HN22        9.6841   -2.1959   14.2201 H       1  LIV         0.1965
     57 HN23        9.0280   -2.3624   12.7160 H       1  LIV         0.1965
     58 H312        8.2737   -0.1954   14.6944 H       1  LIV         0.0354
     59 H313        7.5585   -0.4007   13.0761 H       1  LIV         0.0354
     60 H41         9.2018    2.0203   13.9802 H       1  LIV         0.0632
     61 HO41        6.4324    2.0026   13.3928 H       1  LIV         0.2106
     62 H51         7.6991    1.4335   11.3792 H       1  LIV         0.0657
     63 H612        7.6459    3.8549   12.0679 H       1  LIV         0.0592
     64 H613        9.4290    3.8158   12.0851 H       1  LIV         0.0592
     65 HO61        8.7460    4.4373   10.0335 H       1  LIV         0.2102
     66 H12         9.7514   -3.2532    7.3901 H       1  LIV         0.0881
     67 HN11        8.8914   -3.2319    5.1680 H       1  LIV         0.1964
     68 HN12       10.4914   -2.8318    5.1711 H       1  LIV         0.1964
     69 HN13        9.3491   -1.6613    4.9586 H       1  LIV         0.1964
     70 H62        10.3444   -0.2814    6.8131 H       1  LIV         0.0689
     71 HO62       12.3857   -0.9913    6.5920 H       1  LIV         0.2109
     72 H52        10.8390   -1.9486    9.3425 H       1  LIV         0.0665
     73 H42         8.8091    0.3024    9.0114 H       1  LIV         0.0694
     74 H32         8.2138   -2.6659    9.3498 H       1  LIV         0.0881
     75 HN31        5.9813   -1.9274    9.0066 H       1  LIV         0.1964
     76 HN32        6.6448   -1.2043   10.3320 H       1  LIV         0.1964
     77 HN33        6.4709   -0.3543    8.9293 H       1  LIV         0.1964
     78 H222        7.3351   -2.6130    7.0108 H       1  LIV         0.0384
     79 H223        7.8215   -0.9085    6.8501 H       1  LIV         0.0384
     80 H13        13.1452   -0.7555    8.5007 H       1  LIV         0.0953
     81 H23        13.0406    1.7325   10.2084 H       1  LIV         0.0684
     82 HO23       14.6032    2.3547    8.5125 H       1  LIV         0.2109
     83 H33        15.2673    1.3034   10.9715 H       1  LIV         0.0663
     84 H43        14.9562   -1.3752   11.4507 H       1  LIV         0.0658
     85 H532       12.8402    0.5294   12.5523 H       1  LIV         0.0592
     86 H533       14.4810    0.3637   13.2316 H       1  LIV         0.0592
     87 HO53       12.8496   -1.0626   14.2150 H       1  LIV         0.2102
     88 H44        20.7221   -1.4662   10.8010 H       1  LIV         0.0665
     89 H34        19.8134   -1.7188    8.3488 H       1  LIV         0.0691
     90 HO34       19.7683    0.5396    8.0788 H       1  LIV         0.2109
     91 H24        17.5727   -0.7618    7.8145 H       1  LIV         0.0933
     92 HN24       16.2482   -2.4560    8.4072 H       1  LIV         0.1967
     93 HN25       17.7259   -3.1509    8.6379 H       1  LIV         0.1967
     94 HN26       16.8596   -2.6069    9.9316 H       1  LIV         0.1967
     95 H14        17.3812    0.9669    9.5419 H       1  LIV         0.0987
     96 H54        19.2441    0.1561   11.3989 H       1  LIV         0.0690
     97 H642       19.4359   -0.1338   13.4140 H       1  LIV         0.0841
     98 H643       19.6137   -1.8779   13.1518 H       1  LIV         0.0841
     99 HN61       17.9097   -1.5574   14.6848 H       1  LIV         0.1961
    100 HN62       17.1618   -0.4004   13.7781 H       1  LIV         0.1961
    101 HN63       17.1589   -1.9715   13.2758 H       1  LIV         0.1961
    102 H15        20.2661   -4.6931    9.6875 H       1  LIV         0.0953
    103 H25        18.3247   -4.8230   11.3270 H       1  LIV         0.0684
    104 H35        19.1503   -3.8934   13.3450 H       1  LIV         0.0659
    105 H45        21.3168   -5.9802   13.5335 H       1  LIV         0.0658
    106 H55        21.6795   -3.1819   12.7829 H       1  LIV         0.0658
    107 H652       23.8837   -3.5785   11.8666 H       1  LIV         0.0592
    108 H653       23.6741   -3.5960   13.6333 H       1  LIV         0.0592
    109 HO25       19.0123   -6.9956   11.8417 H       1  LIV         0.2109
    110 HO35       19.0153   -5.8726   14.6696 H       1  LIV         0.2107
    111 HO45       21.9148   -4.6562   15.2481 H       1  LIV         0.2107
    112 HO65       24.9369   -5.4033   13.0388 H       1  LIV         0.2102
@<TRIPOS>BOND
     1     1     2    1
     2     1     3    1
     3     1     9    1
     4     2    18    1
     5     3     4    1
     6     3     5    1
     7     5     6    1
     8     6     7    1
     9     6     8    1
    10     8     9    1
    11     8    10    1
    12    10    11    1
    13    12    13    1
    14    12    14    1
    15    12    21    1
    16    14    15    1
    17    14    16    1
    18    16    17    1
    19    16    18    1
    20    17    22    1
    21    18    19    1
    22    19    20    1
    23    19    21    1
    24    22    23    1
    25    22    27    1
    26    23    24    1
    27    23    25    1
    28    25    26    1
    29    25    37    1
    30    26    27    1
    31    26    28    1
    32    28    29    1
    33    30    31    1
    34    30    32    1
    35    30    38    1
    36    31    42    1
    37    32    33    1
    38    32    34    1
    39    34    35    1
    40    34    36    1
    41    36    37    1
    42    36    39    1
    43    38    39    1
    44    38    40    1
    45    40    41    1
    46    42    43    1
    47    42    51    1
    48    43    44    1
    49    43    48    1
    50    44    45    1
    51    44    49    1
    52    45    46    1
    53    45    50    1
    54    46    47    1
    55    46    51    1
    56    47    52    1
    57    53     1    1
    58    54     3    1
    59    55     4    1
    60    56     4    1
    61    57     4    1
    62    58     5    1
    63    59     5    1
    64    60     6    1
    65    61     7    1
    66    62     8    1
    67    63    10    1
    68    64    10    1
    69    65    11    1
    70    66    12    1
    71    67    13    1
    72    68    13    1
    73    69    13    1
    74    70    14    1
    75    71    15    1
    76    72    16    1
    77    73    18    1
    78    74    19    1
    79    75    20    1
    80    76    20    1
    81    77    20    1
    82    78    21    1
    83    79    21    1
    84    80    22    1
    85    81    23    1
    86    82    24    1
    87    83    25    1
    88    84    26    1
    89    85    28    1
    90    86    28    1
    91    87    29    1
    92    88    30    1
    93    89    32    1
    94    90    33    1
    95    91    34    1
    96    92    35    1
    97    93    35    1
    98    94    35    1
    99    95    36    1
   100    96    38    1
   101    97    40    1
   102    98    40    1
   103    99    41    1
   104   100    41    1
   105   101    41    1
   106   102    42    1
   107   103    43    1
   108   104    44    1
   109   105    45    1
   110   106    46    1
   111   107    47    1
   112   108    47    1
   113   109    48    1
   114   110    49    1
   115   111    50    1
   116   112    52    1
@<TRIPOS>SUBSTRUCTURE
     1 LIV         1 TEMP              0 ****  ****    0 ROOT

